<?xml version="1.0" encoding="UTF-8"?>
<routes xmlns:xsi="http://www.w3.org/2001/XMLSchema-instance" xsi:noNamespaceSchemaLocation="http://sumo.dlr.de/xsd/routes_file.xsd">
    <route id="r0" edges="-282035719#2 -282035719#1 -282035719#0 -116607285#2 -116607285#1 -116607285#0 -334712725#1 -334712725#0 116439948#1 116439948#2 334712712#7 334712712#8 -352232989 -282035660#0 116607733#9"/>
    <route id="r1" edges="352235363#0 352235363#1 352235363#2 1459224585#2 313195147#2 313195147#3 1051856116 147252877#4 352235705#0 -1338617629 334712712#1 334712712#2 334712712#3"/>
    <route id="r2" edges="282035747 827086282#1 -1304814662 170870621#2 -352235843#0 -116607285#3 -116607285#2 -116607285#1 -116607285#0 -334712725#1 -334712725#0 116439948#1 116439948#2 334712712#7 334712712#8 334712712#9 334712712#11 334712712#12 315417462#12 315417462#13 315417462#15 315417462#16 315417462#17 315417462#18 393419596 380186804 314536791#0 -281795926#4 -281795926#3 827086294#7 313195147#10 207472304#0"/>
    <route id="r3" edges="-282035712#6 282035712#6 -316751880#7 -316751880#6 -316751880#5 -316751880#3 -316751880#1 -316751880#0 1459224585#0 1459224585#1 1459224585#2 313195147#2 313195147#3 1051856116 147252877#4 352235705#0 -1338617629 334712712#1 426066278 -116607285#3 282035719#0"/>
    <route id="r4" edges="116610712#2 116610712#3 116610712#4 116610712#5 116610712#6 827086282#0 827086282#1 -1304814662 170870621#2 -352235843#0 -426066278 -334712712#1 -334712712#0 -352235705#0 147252877#7 313195924 61574816#1 61574816#4 -61574816#4"/>
    <route id="r5" edges="-116439948#1 334712725#0 334712725#1 116607285#0 116607285#1 116607285#2 116607285#3 352235843#0 352235843#1 1304814662 -827086282#1 -827086282#0 -116610712#6 116611237#0 -116611028#5 -116611028#4"/>
    <route id="r6" edges="116610653#4 -116610397#6 -116610397#5 -827086282#2 -1304814662 170870621#2 -352235843#0 -116607285#3 -116607285#2 -116607285#1 -116607285#0 -334712725#1 -334712725#0 116439948#1 116439948#2 334712712#7 334712712#8 334712712#9 334712712#11 334712712#12 315417462#12 315417462#13 315417462#15 315417462#16 315417462#17 315417462#18 393419596 380186804 314536791#0 314536791#2 314536791#3 314536791#4 314536791#6 380186805 380186806 28092342#0 728941829#0 -182703150#2 -182703150#1 -182703150#0 352233069#2 352233069#3 182703524#0 182703524#1 334712616#2"/>
    <route id="r7" edges="116612967#3 334712595 -116612157#0 334712541#5 315417462#18 393419596 380186804 314536791#0 314536791#2 314536791#3 314536791#4 314536791#6 380186805 380186806 28092342#0 728941829#0 -182703150#2 -182703150#1"/>
    <route id="r8" edges="-1304814662 170870621#2 -352235843#0 -116607285#3 -116607285#2 -116607285#1 -116607285#0 -334712725#1 -334712725#0 116439948#1 -131337080 -131337079#0 -334712615#0"/>
    <route id="r9" edges="334712687#3 -334712687#3 -334712687#2 -352235603#3 116610521#0 116610521#1 116610521#2 116610521#3 -282035549#0 -352235843#0 -426066278 -334712712#1 -334712712#0 352235705#1"/>
    <route id="r10" edges="-282035414#5 -282035414#4 -282035414#3 -282035414#2 -282035414#1 282035373 282035326#7 -352235987 -282035705#0"/>
    <route id="r11" edges="-1195561017 116608275#0 281802015#0 281802015#1 281802015#2 334712712#12 315417462#12 315417462#13 315417462#15 315417462#16 315417462#17 315417462#18 1109179959#0 1109179959#1 1109179959#2 1109179959#3 147252877#0 147252877#1 147252877#3 147252877#4 147252877#7 313195147#1 313195147#2 313195147#3 313195147#4"/>
    <route id="r12" edges="352233173#1 -116609845#1 -116609845#0 -116609794#1 -116609794#0 116607285#1 116607285#2 116607285#3 -426066278 -334712712#1 -334712712#0 -352235705#0 147252877#7 313195924 61574816#1 61574816#4 61574816#5 61574816#6 -352234666#2 -117364606#2 -397578134"/>
    <route id="r13" edges="1447357247 313195147#5 313195147#6 313195147#7 -182703787#9 -182703787#8 -182703787#7 -182703787#5 -182703787#3 -182703787#1 -182703787#0 1353306748#1 1353306747 309189799#0 -352233069#5 334712616#1 -182703524#1"/>
    <route id="r14" edges="362797286#3 -362797286#3 -362797286#2 -362797286#1 -362797286#0 -416929437#1 -416929437#0 352232705#2 309189807#1 309189807#2 309189798 1353306748#1 -1188033586#1 -1188033586#0 -316751880#11 -316751880#10 -316751880#8 -316751880#7 -316751880#6 -316751880#5 -316751880#3 -316751880#1 -316751880#0 1459224585#0 1459224585#1 1459224585#2 313195147#2 313195147#3 1051856116 147252877#4 352235705#0 -1338617629 334712712#1 426066278 352235843#0 352235843#1 1304814662 -827086282#1 -827086282#0 -116610712#6 -116610712#5 -116610712#4 -116610712#3 -116610712#2 -116610712#1 116610737 1425798343#2 -352233445#2 -352233445#1 352233445#1"/>
    <route id="r15" edges="694244632#0 -694244632#0 -1188033586#0 -316751880#11 -316751880#10 -316751880#8 -316751880#7 -316751880#6 -316751880#5 -316751880#3 -316751880#1 316751880#1"/>
    <route id="r16" edges="352233069#4 334712616#1 334712616#2 334712616#3 -182703263#0 309189807#2 309189798 1353306748#1 -1188033586#1 -1188033586#0 -316751880#11 -316751880#10 -316751880#8 -316751880#7 -316751880#6 -316751880#5 -316751880#3 -316751880#1 -316751880#0 1459224585#0 1459224585#1 1459224585#2 313195147#2 313195147#3 1051856116 147252877#4 352235705#0 -1338617629 334712712#1 334712712#2 334712712#3 334712712#4 334712712#5 334712712#6 334712712#7 334712712#8 334712712#9 334712712#11 334712712#12 315417462#12 315417462#13 315417462#15 315417462#16 -116607733#9"/>
    <route id="r17" edges="363194031 -363194031 -281802013#0 -281802014#1 -116439943#2 -116439943#1 315417462#3 315417462#4 315417462#6 315417462#7 315417462#10 315417462#11 315417462#12 315417462#13 315417462#15"/>
    <route id="r18" edges="334712712#12 315417462#12 315417462#13 315417462#15 315417462#16 315417462#17 315417462#18 393419596 380186804 314536791#0 314536791#2 314536791#3 314536791#4 314536791#6 380186805 27955945#0 27955945#1 309189798 1353306748#1 -1188033586#1 -1188033586#0 -316751880#11 -316751880#10 -316751880#8 -316751880#7 -316751880#6 -316751880#5 -316751880#3 -316751880#1 316751880#1"/>
    <route id="r19" edges="-282035725#2 282035725#2 316751880#12 1188033586#1 1353306747 309189798 182703787#0 182703787#1 182703787#3 182703787#5 182703787#7 182703787#8 182703787#9 313195147#8 313195147#9 313195147#10 207472304#0 207472304#1 314222544#0-AddedOnRampEdge"/>
    <vehicle id="india_0" type="two_wheeler" route="r0" depart="0" departLane="best" departSpeed="max"/>
    <vehicle id="india_1" type="two_wheeler" route="r1" depart="20" departLane="best" departSpeed="max"/>
    <vehicle id="india_2" type="two_wheeler" route="r2" depart="40" departLane="best" departSpeed="max"/>
    <vehicle id="india_3" type="two_wheeler" route="r3" depart="60" departLane="best" departSpeed="max"/>
    <vehicle id="india_4" type="two_wheeler" route="r4" depart="80" departLane="best" departSpeed="max"/>
    <vehicle id="india_5" type="two_wheeler" route="r5" depart="100" departLane="best" departSpeed="max"/>
    <vehicle id="india_6" type="two_wheeler" route="r6" depart="120" departLane="best" departSpeed="max"/>
    <vehicle id="india_7" type="two_wheeler" route="r7" depart="140" departLane="best" departSpeed="max"/>
    <vehicle id="india_8" type="two_wheeler" route="r8" depart="160" departLane="best" departSpeed="max"/>
    <vehicle id="india_9" type="two_wheeler" route="r9" depart="180" departLane="best" departSpeed="max"/>
    <vehicle id="india_10" type="two_wheeler" route="r10" depart="200" departLane="best" departSpeed="max"/>
    <vehicle id="india_11" type="two_wheeler" route="r11" depart="220" departLane="best" departSpeed="max"/>
    <vehicle id="india_12" type="two_wheeler" route="r12" depart="240" departLane="best" departSpeed="max"/>
    <vehicle id="india_13" type="two_wheeler" route="r13" depart="260" departLane="best" departSpeed="max"/>
    <vehicle id="india_14" type="two_wheeler" route="r14" depart="280" departLane="best" departSpeed="max"/>
    <vehicle id="india_15" type="two_wheeler" route="r15" depart="300" departLane="best" departSpeed="max"/>
    <vehicle id="india_16" type="two_wheeler" route="r16" depart="320" departLane="best" departSpeed="max"/>
    <vehicle id="india_17" type="two_wheeler" route="r17" depart="340" departLane="best" departSpeed="max"/>
    <vehicle id="india_18" type="two_wheeler" route="r18" depart="360" departLane="best" departSpeed="max"/>
    <vehicle id="india_19" type="two_wheeler" route="r19" depart="380" departLane="best" departSpeed="max"/>
    <vehicle id="india_20" type="two_wheeler" route="r0" depart="400" departLane="best" departSpeed="max"/>
    <vehicle id="india_21" type="two_wheeler" route="r1" depart="420" departLane="best" departSpeed="max"/>
    <vehicle id="india_22" type="two_wheeler" route="r2" depart="440" departLane="best" departSpeed="max"/>
    <vehicle id="india_23" type="two_wheeler" route="r3" depart="460" departLane="best" departSpeed="max"/>
    <vehicle id="india_24" type="two_wheeler" route="r4" depart="480" departLane="best" departSpeed="max"/>
    <vehicle id="india_25" type="two_wheeler" route="r5" depart="500" departLane="best" departSpeed="max"/>
    <vehicle id="india_26" type="two_wheeler" route="r6" depart="520" departLane="best" departSpeed="max"/>
    <vehicle id="india_27" type="two_wheeler" route="r7" depart="540" departLane="best" departSpeed="max"/>
    <vehicle id="india_28" type="two_wheeler" route="r8" depart="560" departLane="best" departSpeed="max"/>
    <vehicle id="india_29" type="two_wheeler" route="r9" depart="580" departLane="best" departSpeed="max"/>
    <vehicle id="india_30" type="two_wheeler" route="r10" depart="600" departLane="best" departSpeed="max"/>
    <vehicle id="india_31" type="two_wheeler" route="r11" depart="620" departLane="best" departSpeed="max"/>
    <vehicle id="india_32" type="two_wheeler" route="r12" depart="640" departLane="best" departSpeed="max"/>
    <vehicle id="india_33" type="two_wheeler" route="r13" depart="660" departLane="best" departSpeed="max"/>
    <vehicle id="india_34" type="two_wheeler" route="r14" depart="680" departLane="best" departSpeed="max"/>
    <vehicle id="india_35" type="two_wheeler" route="r15" depart="700" departLane="best" departSpeed="max"/>
    <vehicle id="india_36" type="two_wheeler" route="r16" depart="720" departLane="best" departSpeed="max"/>
    <vehicle id="india_37" type="two_wheeler" route="r17" depart="740" departLane="best" departSpeed="max"/>
    <vehicle id="india_38" type="two_wheeler" route="r18" depart="760" departLane="best" departSpeed="max"/>
    <vehicle id="india_39" type="two_wheeler" route="r19" depart="780" departLane="best" departSpeed="max"/>
    <vehicle id="india_40" type="two_wheeler" route="r0" depart="800" departLane="best" departSpeed="max"/>
    <vehicle id="india_41" type="two_wheeler" route="r1" depart="820" departLane="best" departSpeed="max"/>
    <vehicle id="india_42" type="two_wheeler" route="r2" depart="840" departLane="best" departSpeed="max"/>
    <vehicle id="india_43" type="two_wheeler" route="r3" depart="860" departLane="best" departSpeed="max"/>
    <vehicle id="india_44" type="two_wheeler" route="r4" depart="880" departLane="best" departSpeed="max"/>
    <vehicle id="india_45" type="two_wheeler" route="r5" depart="900" departLane="best" departSpeed="max"/>
    <vehicle id="india_46" type="two_wheeler" route="r6" depart="920" departLane="best" departSpeed="max"/>
    <vehicle id="india_47" type="two_wheeler" route="r7" depart="940" departLane="best" departSpeed="max"/>
    <vehicle id="india_48" type="two_wheeler" route="r8" depart="960" departLane="best" departSpeed="max"/>
    <vehicle id="india_49" type="two_wheeler" route="r9" depart="980" departLane="best" departSpeed="max"/>
    <vehicle id="india_50" type="two_wheeler" route="r10" depart="1000" departLane="best" departSpeed="max"/>
    <vehicle id="india_51" type="two_wheeler" route="r11" depart="1020" departLane="best" departSpeed="max"/>
    <vehicle id="india_52" type="two_wheeler" route="r12" depart="1040" departLane="best" departSpeed="max"/>
    <vehicle id="india_53" type="two_wheeler" route="r13" depart="1060" departLane="best" departSpeed="max"/>
    <vehicle id="india_54" type="two_wheeler" route="r14" depart="1080" departLane="best" departSpeed="max"/>
    <vehicle id="india_55" type="two_wheeler" route="r15" depart="1100" departLane="best" departSpeed="max"/>
    <vehicle id="india_56" type="two_wheeler" route="r16" depart="1120" departLane="best" departSpeed="max"/>
    <vehicle id="india_57" type="two_wheeler" route="r17" depart="1140" departLane="best" departSpeed="max"/>
    <vehicle id="india_58" type="two_wheeler" route="r18" depart="1160" departLane="best" departSpeed="max"/>
    <vehicle id="india_59" type="two_wheeler" route="r19" depart="1180" departLane="best" departSpeed="max"/>
    <vehicle id="india_60" type="two_wheeler" route="r0" depart="1200" departLane="best" departSpeed="max"/>
    <vehicle id="india_61" type="two_wheeler" route="r1" depart="1220" departLane="best" departSpeed="max"/>
    <vehicle id="india_62" type="two_wheeler" route="r2" depart="1240" departLane="best" departSpeed="max"/>
    <vehicle id="india_63" type="two_wheeler" route="r3" depart="1260" departLane="best" departSpeed="max"/>
    <vehicle id="india_64" type="two_wheeler" route="r4" depart="1280" departLane="best" departSpeed="max"/>
    <vehicle id="india_65" type="two_wheeler" route="r5" depart="1300" departLane="best" departSpeed="max"/>
    <vehicle id="india_66" type="two_wheeler" route="r6" depart="1320" departLane="best" departSpeed="max"/>
    <vehicle id="india_67" type="two_wheeler" route="r7" depart="1340" departLane="best" departSpeed="max"/>
    <vehicle id="india_68" type="two_wheeler" route="r8" depart="1360" departLane="best" departSpeed="max"/>
    <vehicle id="india_69" type="two_wheeler" route="r9" depart="1380" departLane="best" departSpeed="max"/>
    <vehicle id="india_70" type="two_wheeler" route="r10" depart="1400" departLane="best" departSpeed="max"/>
    <vehicle id="india_71" type="two_wheeler" route="r11" depart="1420" departLane="best" departSpeed="max"/>
    <vehicle id="india_72" type="two_wheeler" route="r12" depart="1440" departLane="best" departSpeed="max"/>
    <vehicle id="india_73" type="two_wheeler" route="r13" depart="1460" departLane="best" departSpeed="max"/>
    <vehicle id="india_74" type="two_wheeler" route="r14" depart="1480" departLane="best" departSpeed="max"/>
    <vehicle id="india_75" type="two_wheeler" route="r15" depart="1500" departLane="best" departSpeed="max"/>
    <vehicle id="india_76" type="two_wheeler" route="r16" depart="1520" departLane="best" departSpeed="max"/>
    <vehicle id="india_77" type="two_wheeler" route="r17" depart="1540" departLane="best" departSpeed="max"/>
    <vehicle id="india_78" type="two_wheeler" route="r18" depart="1560" departLane="best" departSpeed="max"/>
    <vehicle id="india_79" type="two_wheeler" route="r19" depart="1580" departLane="best" departSpeed="max"/>
    <vehicle id="india_80" type="auto_rickshaw" route="r0" depart="5" departLane="best" departSpeed="max"/>
    <vehicle id="india_81" type="auto_rickshaw" route="r1" depart="50" departLane="best" departSpeed="max"/>
    <vehicle id="india_82" type="auto_rickshaw" route="r2" depart="95" departLane="best" departSpeed="max"/>
    <vehicle id="india_83" type="auto_rickshaw" route="r3" depart="140" departLane="best" departSpeed="max"/>
    <vehicle id="india_84" type="auto_rickshaw" route="r4" depart="185" departLane="best" departSpeed="max"/>
    <vehicle id="india_85" type="auto_rickshaw" route="r5" depart="230" departLane="best" departSpeed="max"/>
    <vehicle id="india_86" type="auto_rickshaw" route="r6" depart="275" departLane="best" departSpeed="max"/>
    <vehicle id="india_87" type="auto_rickshaw" route="r7" depart="320" departLane="best" departSpeed="max"/>
    <vehicle id="india_88" type="auto_rickshaw" route="r8" depart="365" departLane="best" departSpeed="max"/>
    <vehicle id="india_89" type="auto_rickshaw" route="r9" depart="410" departLane="best" departSpeed="max"/>
    <vehicle id="india_90" type="auto_rickshaw" route="r10" depart="455" departLane="best" departSpeed="max"/>
    <vehicle id="india_91" type="auto_rickshaw" route="r11" depart="500" departLane="best" departSpeed="max"/>
    <vehicle id="india_92" type="auto_rickshaw" route="r12" depart="545" departLane="best" departSpeed="max"/>
    <vehicle id="india_93" type="auto_rickshaw" route="r13" depart="590" departLane="best" departSpeed="max"/>
    <vehicle id="india_94" type="auto_rickshaw" route="r14" depart="635" departLane="best" departSpeed="max"/>
    <vehicle id="india_95" type="auto_rickshaw" route="r15" depart="680" departLane="best" departSpeed="max"/>
    <vehicle id="india_96" type="auto_rickshaw" route="r16" depart="725" departLane="best" departSpeed="max"/>
    <vehicle id="india_97" type="auto_rickshaw" route="r17" depart="770" departLane="best" departSpeed="max"/>
    <vehicle id="india_98" type="auto_rickshaw" route="r18" depart="815" departLane="best" departSpeed="max"/>
    <vehicle id="india_99" type="auto_rickshaw" route="r19" depart="860" departLane="best" departSpeed="max"/>
    <vehicle id="india_100" type="auto_rickshaw" route="r0" depart="905" departLane="best" departSpeed="max"/>
    <vehicle id="india_101" type="auto_rickshaw" route="r1" depart="950" departLane="best" departSpeed="max"/>
    <vehicle id="india_102" type="auto_rickshaw" route="r2" depart="995" departLane="best" departSpeed="max"/>
    <vehicle id="india_103" type="auto_rickshaw" route="r3" depart="1040" departLane="best" departSpeed="max"/>
    <vehicle id="india_104" type="auto_rickshaw" route="r4" depart="1085" departLane="best" departSpeed="max"/>
    <vehicle id="india_105" type="auto_rickshaw" route="r5" depart="1130" departLane="best" departSpeed="max"/>
    <vehicle id="india_106" type="auto_rickshaw" route="r6" depart="1175" departLane="best" departSpeed="max"/>
    <vehicle id="india_107" type="auto_rickshaw" route="r7" depart="1220" departLane="best" departSpeed="max"/>
    <vehicle id="india_108" type="auto_rickshaw" route="r8" depart="1265" departLane="best" departSpeed="max"/>
    <vehicle id="india_109" type="auto_rickshaw" route="r9" depart="1310" departLane="best" departSpeed="max"/>
    <vehicle id="india_110" type="auto_rickshaw" route="r10" depart="1355" departLane="best" departSpeed="max"/>
    <vehicle id="india_111" type="auto_rickshaw" route="r11" depart="1400" departLane="best" departSpeed="max"/>
    <vehicle id="india_112" type="auto_rickshaw" route="r12" depart="1445" departLane="best" departSpeed="max"/>
    <vehicle id="india_113" type="auto_rickshaw" route="r13" depart="1490" departLane="best" departSpeed="max"/>
    <vehicle id="india_114" type="auto_rickshaw" route="r14" depart="1535" departLane="best" departSpeed="max"/>
    <vehicle id="india_115" type="auto_rickshaw" route="r15" depart="1580" departLane="best" departSpeed="max"/>
    <vehicle id="india_116" type="auto_rickshaw" route="r16" depart="1625" departLane="best" departSpeed="max"/>
    <vehicle id="india_117" type="auto_rickshaw" route="r17" depart="1670" departLane="best" departSpeed="max"/>
    <vehicle id="india_118" type="auto_rickshaw" route="r18" depart="1715" departLane="best" departSpeed="max"/>
    <vehicle id="india_119" type="auto_rickshaw" route="r19" depart="1760" departLane="best" departSpeed="max"/>
    <vehicle id="india_120" type="heavy_two_wheeler" route="r0" depart="10" departLane="best" departSpeed="max"/>
    <vehicle id="india_121" type="heavy_two_wheeler" route="r1" depart="70" departLane="best" departSpeed="max"/>
    <vehicle id="india_122" type="heavy_two_wheeler" route="r2" depart="130" departLane="best" departSpeed="max"/>
    <vehicle id="india_123" type="heavy_two_wheeler" route="r3" depart="190" departLane="best" departSpeed="max"/>
    <vehicle id="india_124" type="heavy_two_wheeler" route="r4" depart="250" departLane="best" departSpeed="max"/>
    <vehicle id="india_125" type="heavy_two_wheeler" route="r5" depart="310" departLane="best" departSpeed="max"/>
    <vehicle id="india_126" type="heavy_two_wheeler" route="r6" depart="370" departLane="best" departSpeed="max"/>
    <vehicle id="india_127" type="heavy_two_wheeler" route="r7" depart="430" departLane="best" departSpeed="max"/>
    <vehicle id="india_128" type="heavy_two_wheeler" route="r8" depart="490" departLane="best" departSpeed="max"/>
    <vehicle id="india_129" type="heavy_two_wheeler" route="r9" depart="550" departLane="best" departSpeed="max"/>
    <vehicle id="india_130" type="heavy_two_wheeler" route="r10" depart="610" departLane="best" departSpeed="max"/>
    <vehicle id="india_131" type="heavy_two_wheeler" route="r11" depart="670" departLane="best" departSpeed="max"/>
    <vehicle id="india_132" type="heavy_two_wheeler" route="r12" depart="730" departLane="best" departSpeed="max"/>
    <vehicle id="india_133" type="heavy_two_wheeler" route="r13" depart="790" departLane="best" departSpeed="max"/>
    <vehicle id="india_134" type="heavy_two_wheeler" route="r14" depart="850" departLane="best" departSpeed="max"/>
    <vehicle id="india_135" type="heavy_two_wheeler" route="r15" depart="910" departLane="best" departSpeed="max"/>
    <vehicle id="india_136" type="heavy_two_wheeler" route="r16" depart="970" departLane="best" departSpeed="max"/>
    <vehicle id="india_137" type="heavy_two_wheeler" route="r17" depart="1030" departLane="best" departSpeed="max"/>
    <vehicle id="india_138" type="heavy_two_wheeler" route="r18" depart="1090" departLane="best" departSpeed="max"/>
    <vehicle id="india_139" type="heavy_two_wheeler" route="r19" depart="1150" departLane="best" departSpeed="max"/>
    <vehicle id="india_140" type="heavy_two_wheeler" route="r0" depart="1210" departLane="best" departSpeed="max"/>
    <vehicle id="india_141" type="heavy_two_wheeler" route="r1" depart="1270" departLane="best" departSpeed="max"/>
    <vehicle id="india_142" type="heavy_two_wheeler" route="r2" depart="1330" departLane="best" departSpeed="max"/>
    <vehicle id="india_143" type="heavy_two_wheeler" route="r3" depart="1390" departLane="best" departSpeed="max"/>
    <vehicle id="india_144" type="heavy_two_wheeler" route="r4" depart="1450" departLane="best" departSpeed="max"/>
    <vehicle id="india_145" type="heavy_two_wheeler" route="r5" depart="1510" departLane="best" departSpeed="max"/>
    <vehicle id="india_146" type="heavy_two_wheeler" route="r6" depart="1570" departLane="best" departSpeed="max"/>
    <vehicle id="india_147" type="heavy_two_wheeler" route="r7" depart="1630" departLane="best" departSpeed="max"/>
    <vehicle id="india_148" type="heavy_two_wheeler" route="r8" depart="1690" departLane="best" departSpeed="max"/>
    <vehicle id="india_149" type="heavy_two_wheeler" route="r9" depart="1750" departLane="best" departSpeed="max"/>
    <vehicle id="india_150" type="minibus" route="r10" depart="15" departLane="best" departSpeed="max"/>
    <vehicle id="india_151" type="minibus" route="r11" depart="105" departLane="best" departSpeed="max"/>
    <vehicle id="india_152" type="minibus" route="r12" depart="195" departLane="best" departSpeed="max"/>
    <vehicle id="india_153" type="minibus" route="r13" depart="285" departLane="best" departSpeed="max"/>
    <vehicle id="india_154" type="minibus" route="r14" depart="375" departLane="best" departSpeed="max"/>
    <vehicle id="india_155" type="minibus" route="r15" depart="465" departLane="best" departSpeed="max"/>
    <vehicle id="india_156" type="minibus" route="r16" depart="555" departLane="best" departSpeed="max"/>
    <vehicle id="india_157" type="minibus" route="r17" depart="645" departLane="best" departSpeed="max"/>
    <vehicle id="india_158" type="minibus" route="r18" depart="735" departLane="best" departSpeed="max"/>
    <vehicle id="india_159" type="minibus" route="r19" depart="825" departLane="best" departSpeed="max"/>
    <vehicle id="india_160" type="minibus" route="r0" depart="915" departLane="best" departSpeed="max"/>
    <vehicle id="india_161" type="minibus" route="r1" depart="1005" departLane="best" departSpeed="max"/>
    <vehicle id="india_162" type="minibus" route="r2" depart="1095" departLane="best" departSpeed="max"/>
    <vehicle id="india_163" type="minibus" route="r3" depart="1185" departLane="best" departSpeed="max"/>
    <vehicle id="india_164" type="minibus" route="r4" depart="1275" departLane="best" departSpeed="max"/>
    <vehicle id="india_165" type="minibus" route="r5" depart="1365" departLane="best" departSpeed="max"/>
    <vehicle id="india_166" type="minibus" route="r6" depart="1455" departLane="best" departSpeed="max"/>
    <vehicle id="india_167" type="minibus" route="r7" depart="1545" departLane="best" departSpeed="max"/>
    <vehicle id="india_168" type="minibus" route="r8" depart="1635" departLane="best" departSpeed="max"/>
    <vehicle id="india_169" type="minibus" route="r9" depart="1725" departLane="best" departSpeed="max"/>
    <vehicle id="india_170" type="car" route="r10" depart="20" departLane="best" departSpeed="max"/>
    <vehicle id="india_171" type="car" route="r11" depart="110" departLane="best" departSpeed="max"/>
    <vehicle id="india_172" type="car" route="r12" depart="200" departLane="best" departSpeed="max"/>
    <vehicle id="india_173" type="car" route="r13" depart="290" departLane="best" departSpeed="max"/>
    <vehicle id="india_174" type="car" route="r14" depart="380" departLane="best" departSpeed="max"/>
    <vehicle id="india_175" type="car" route="r15" depart="470" departLane="best" departSpeed="max"/>
    <vehicle id="india_176" type="car" route="r16" depart="560" departLane="best" departSpeed="max"/>
    <vehicle id="india_177" type="car" route="r17" depart="650" departLane="best" departSpeed="max"/>
    <vehicle id="india_178" type="car" route="r18" depart="740" departLane="best" departSpeed="max"/>
    <vehicle id="india_179" type="car" route="r19" depart="830" departLane="best" departSpeed="max"/>
    <vehicle id="india_180" type="car" route="r0" depart="920" departLane="best" departSpeed="max"/>
    <vehicle id="india_181" type="car" route="r1" depart="1010" departLane="best" departSpeed="max"/>
    <vehicle id="india_182" type="car" route="r2" depart="1100" departLane="best" departSpeed="max"/>
    <vehicle id="india_183" type="car" route="r3" depart="1190" departLane="best" departSpeed="max"/>
    <vehicle id="india_184" type="car" route="r4" depart="1280" departLane="best" departSpeed="max"/>
    <vehicle id="india_185" type="car" route="r5" depart="1370" departLane="best" departSpeed="max"/>
    <vehicle id="india_186" type="car" route="r6" depart="1460" departLane="best" departSpeed="max"/>
    <vehicle id="india_187" type="car" route="r7" depart="1550" departLane="best" departSpeed="max"/>
    <vehicle id="india_188" type="car" route="r8" depart="1640" departLane="best" departSpeed="max"/>
    <vehicle id="india_189" type="car" route="r9" depart="1730" departLane="best" departSpeed="max"/>
    <vehicle id="india_190" type="ev" route="r10" depart="30" departLane="best" departSpeed="max"/>
    <vehicle id="india_191" type="ev" route="r11" depart="210" departLane="best" departSpeed="max"/>
    <vehicle id="india_192" type="ev" route="r12" depart="390" departLane="best" departSpeed="max"/>
    <vehicle id="india_193" type="ev" route="r13" depart="570" departLane="best" departSpeed="max"/>
    <vehicle id="india_194" type="ev" route="r14" depart="750" departLane="best" departSpeed="max"/>
    <vehicle id="india_195" type="ev" route="r15" depart="930" departLane="best" departSpeed="max"/>
    <vehicle id="india_196" type="ev" route="r16" depart="1110" departLane="best" departSpeed="max"/>
    <vehicle id="india_197" type="ev" route="r17" depart="1290" departLane="best" departSpeed="max"/>
    <vehicle id="india_198" type="ev" route="r18" depart="1470" departLane="best" departSpeed="max"/>
    <vehicle id="india_199" type="ev" route="r19" depart="1650" departLane="best" departSpeed="max"/>
</routes>