<?xml version="1.0" encoding="UTF-8"?>
<additional>
    <vType id="two_wheeler" vClass="motorcycle"
           length="2.0" width="0.8" height="1.5"
           maxSpeed="16.67" accel="3.5" decel="5.0" sigma="0.7"
           tau="0.8" minGap="0.8" color="255,165,0" />
    <vType id="auto_rickshaw" vClass="taxi"
           length="3.5" width="1.4" height="1.8"
           maxSpeed="11.11" accel="2.0" decel="4.0" sigma="0.8"
           tau="0.9" minGap="1.0" color="255,255,0" />
    <vType id="heavy_two_wheeler" vClass="motorcycle"
           length="2.2" width="0.9" height="1.5"
           maxSpeed="22.22" accel="4.0" decel="5.5" sigma="0.5"
           tau="0.9" minGap="0.9" color="200,100,0" />
    <vType id="minibus" vClass="bus"
           length="6.0" width="2.0" height="2.5"
           maxSpeed="13.89" accel="1.5" decel="3.5" sigma="0.6"
           tau="1.2" minGap="2.0" color="0,200,200" />
</additional>
