<?xml version="1.0" encoding="UTF-8"?>

<!-- generated on 2026-03-25 18:20:56.887860 by Eclipse SUMO randomTrips.py v1_25_0+0000-ac6c5a6752d
<configuration>
    <net-file value="mehd_tol.net.xml"/>
    <route-file value="mehd_tol.rou.xml"/>
    <min-distance value="200.0"/>
    <period value="14.4"/>
    <random-depart value="True"/>
</configuration>
-->

<!-- generated on 2026-03-25T18:20:56.785051+05:30 by Eclipse SUMO duarouter 1.25.0
<duarouterConfiguration xmlns:xsi="http://www.w3.org/2001/XMLSchema-instance" xsi:noNamespaceSchemaLocation="http://sumo.dlr.de/xsd/duarouterConfiguration.xsd">

    <input>
        <net-file value="mehd_tol.net.xml"/>
        <route-files value="trips.trips.xml"/>
    </input>

    <output>
        <output-file value="mehd_tol.rou.xml"/>
        <alternatives-output value="NUL"/>
    </output>

    <time>
        <begin value="0.0"/>
        <end value="3600.0"/>
    </time>

    <report>
        <no-warnings value="true"/>
        <ignore-errors value="true"/>
        <no-step-log value="true"/>
    </report>

</duarouterConfiguration>
-->

<routes xmlns:xsi="http://www.w3.org/2001/XMLSchema-instance" xsi:noNamespaceSchemaLocation="http://sumo.dlr.de/xsd/routes_file.xsd">
    <vehicle type="car" id="0" depart="31.80">
        <route edges="-282035719#2 -282035719#1 -282035719#0 -116607285#2 -116607285#1 -116607285#0 -334712725#1 -334712725#0 116439948#1 116439948#2 334712712#7 334712712#8 -352232989 -282035660#0 116607733#9"/>
    </vehicle>
    <vehicle type="2W" id="1" depart="76.20">
        <route edges="352235363#0 352235363#1 352235363#2 1459224585#2 313195147#2 313195147#3 1051856116 147252877#4 352235705#0 -1338617629 334712712#1 334712712#2 334712712#3"/>
    </vehicle>
    <vehicle type="2W" id="2" depart="125.00">
        <route edges="282035747 827086282#1 -1304814662 170870621#2 -352235843#0 -116607285#3 -116607285#2 -116607285#1 -116607285#0 -334712725#1 -334712725#0 116439948#1 116439948#2 334712712#7 334712712#8 334712712#9 334712712#11 334712712#12 315417462#12 315417462#13 315417462#15 315417462#16 315417462#17 315417462#18 393419596 380186804 314536791#0 -281795926#4 -281795926#3 827086294#7 313195147#10 207472304#0"/>
    </vehicle>
    <vehicle type="2W" id="3" depart="154.20">
        <route edges="-282035712#6 282035712#6 -316751880#7 -316751880#6 -316751880#5 -316751880#3 -316751880#1 -316751880#0 1459224585#0 1459224585#1 1459224585#2 313195147#2 313195147#3 1051856116 147252877#4 352235705#0 -1338617629 334712712#1 426066278 -116607285#3 282035719#0"/>
    </vehicle>
    <vehicle type="car" id="4" depart="154.40">
        <route edges="116610712#2 116610712#3 116610712#4 116610712#5 116610712#6 827086282#0 827086282#1 -1304814662 170870621#2 -352235843#0 -426066278 -334712712#1 -334712712#0 -352235705#0 147252877#7 313195924 61574816#1 61574816#4 -61574816#4"/>
    </vehicle>
    <vehicle type="car" id="5" depart="173.40">
        <route edges="-116439948#1 334712725#0 334712725#1 116607285#0 116607285#1 116607285#2 116607285#3 352235843#0 352235843#1 1304814662 -827086282#1 -827086282#0 -116610712#6 116611237#0 -116611028#5 -116611028#4"/>
    </vehicle>
    <vehicle type="car" id="6" depart="186.20">
        <route edges="116610653#4 -116610397#6 -116610397#5 -827086282#2 -1304814662 170870621#2 -352235843#0 -116607285#3 -116607285#2 -116607285#1 -116607285#0 -334712725#1 -334712725#0 116439948#1 116439948#2 334712712#7 334712712#8 334712712#9 334712712#11 334712712#12 315417462#12 315417462#13 315417462#15 315417462#16 315417462#17 315417462#18 393419596 380186804 314536791#0 314536791#2 314536791#3 314536791#4 314536791#6 380186805 380186806 28092342#0 728941829#0 -182703150#2 -182703150#1 -182703150#0 352233069#2 352233069#3 182703524#0 182703524#1 334712616#2"/>
    </vehicle>
    <vehicle type="2W" id="7" depart="210.20">
        <route edges="116612967#3 334712595 -116612157#0 334712541#5 315417462#18 393419596 380186804 314536791#0 314536791#2 314536791#3 314536791#4 314536791#6 380186805 380186806 28092342#0 728941829#0 -182703150#2 -182703150#1"/>
    </vehicle>
    <vehicle type="2W" id="8" depart="215.80">
        <route edges="-1304814662 170870621#2 -352235843#0 -116607285#3 -116607285#2 -116607285#1 -116607285#0 -334712725#1 -334712725#0 116439948#1 -131337080 -131337079#0 -334712615#0"/>
    </vehicle>
    <vehicle type="2W" id="9" depart="224.40">
        <route edges="334712687#3 -334712687#3 -334712687#2 -352235603#3 116610521#0 116610521#1 116610521#2 116610521#3 -282035549#0 -352235843#0 -426066278 -334712712#1 -334712712#0 352235705#1"/>
    </vehicle>
    <vehicle type="2W" id="10" depart="253.00">
        <route edges="-282035414#5 -282035414#4 -282035414#3 -282035414#2 -282035414#1 282035373 282035326#7 -352235987 -282035705#0"/>
    </vehicle>
    <vehicle type="car" id="11" depart="269.00">
        <route edges="-1195561017 116608275#0 281802015#0 281802015#1 281802015#2 334712712#12 315417462#12 315417462#13 315417462#15 315417462#16 315417462#17 315417462#18 1109179959#0 1109179959#1 1109179959#2 1109179959#3 147252877#0 147252877#1 147252877#3 147252877#4 147252877#7 313195147#1 313195147#2 313195147#3 313195147#4"/>
    </vehicle>
    <vehicle type="2W" id="12" depart="269.40">
        <route edges="352233173#1 -116609845#1 -116609845#0 -116609794#1 -116609794#0 116607285#1 116607285#2 116607285#3 -426066278 -334712712#1 -334712712#0 -352235705#0 147252877#7 313195924 61574816#1 61574816#4 61574816#5 61574816#6 -352234666#2 -117364606#2 -397578134"/>
    </vehicle>
    <vehicle type="2W" id="13" depart="274.20">
        <route edges="1447357247 313195147#5 313195147#6 313195147#7 -182703787#9 -182703787#8 -182703787#7 -182703787#5 -182703787#3 -182703787#1 -182703787#0 1353306748#1 1353306747 309189799#0 -352233069#5 334712616#1 -182703524#1"/>
    </vehicle>
    <vehicle type="car" id="14" depart="285.40">
        <route edges="362797286#3 -362797286#3 -362797286#2 -362797286#1 -362797286#0 -416929437#1 -416929437#0 352232705#2 309189807#1 309189807#2 309189798 1353306748#1 -1188033586#1 -1188033586#0 -316751880#11 -316751880#10 -316751880#8 -316751880#7 -316751880#6 -316751880#5 -316751880#3 -316751880#1 -316751880#0 1459224585#0 1459224585#1 1459224585#2 313195147#2 313195147#3 1051856116 147252877#4 352235705#0 -1338617629 334712712#1 426066278 352235843#0 352235843#1 1304814662 -827086282#1 -827086282#0 -116610712#6 -116610712#5 -116610712#4 -116610712#3 -116610712#2 -116610712#1 116610737 1425798343#2 -352233445#2 -352233445#1 352233445#1"/>
    </vehicle>
    <vehicle type="car" id="15" depart="295.40">
        <route edges="694244632#0 -694244632#0 -1188033586#0 -316751880#11 -316751880#10 -316751880#8 -316751880#7 -316751880#6 -316751880#5 -316751880#3 -316751880#1 316751880#1"/>
    </vehicle>
    <vehicle type="2W" id="16" depart="303.40">
        <route edges="352233069#4 334712616#1 334712616#2 334712616#3 -182703263#0 309189807#2 309189798 1353306748#1 -1188033586#1 -1188033586#0 -316751880#11 -316751880#10 -316751880#8 -316751880#7 -316751880#6 -316751880#5 -316751880#3 -316751880#1 -316751880#0 1459224585#0 1459224585#1 1459224585#2 313195147#2 313195147#3 1051856116 147252877#4 352235705#0 -1338617629 334712712#1 334712712#2 334712712#3 334712712#4 334712712#5 334712712#6 334712712#7 334712712#8 334712712#9 334712712#11 334712712#12 315417462#12 315417462#13 315417462#15 315417462#16 -116607733#9"/>
    </vehicle>
    <vehicle type="car" id="17" depart="318.40">
        <route edges="363194031 -363194031 -281802013#0 -281802014#1 -116439943#2 -116439943#1 315417462#3 315417462#4 315417462#6 315417462#7 315417462#10 315417462#11 315417462#12 315417462#13 315417462#15"/>
    </vehicle>
    <vehicle type="car" id="18" depart="330.60">
        <route edges="334712712#12 315417462#12 315417462#13 315417462#15 315417462#16 315417462#17 315417462#18 393419596 380186804 314536791#0 314536791#2 314536791#3 314536791#4 314536791#6 380186805 27955945#0 27955945#1 309189798 1353306748#1 -1188033586#1 -1188033586#0 -316751880#11 -316751880#10 -316751880#8 -316751880#7 -316751880#6 -316751880#5 -316751880#3 -316751880#1 316751880#1"/>
    </vehicle>
    <vehicle type="2W" id="19" depart="347.20">
        <route edges="-282035725#2 282035725#2 316751880#12 1188033586#1 1353306747 309189798 182703787#0 182703787#1 182703787#3 182703787#5 182703787#7 182703787#8 182703787#9 313195147#8 313195147#9 313195147#10 207472304#0 207472304#1 314222544#0-AddedOnRampEdge"/>
    </vehicle>
    <vehicle type="car" id="20" depart="360.20">
        <route edges="-1242153875 170870587 -1272950380#0 -1425798343#5 -1425798343#4 -1425798343#3 -1425798343#2 -116610737 116610712#1 116610712#2 116610712#3 116610712#4 116610712#5 116610712#6 827086282#0 827086282#1 -1304814662 170870621#2 -352235843#0 -426066278 -334712712#1 -334712712#0 -352235705#0 147252877#7 313195147#1 313195147#2 323880237#0 -282035414#8 -282035414#7 -282035414#6 -352234130#3 -352236315#2 -352236315#1 352234130#0"/>
    </vehicle>
    <vehicle type="car" id="21" depart="381.20">
        <route edges="334712687#0 334712687#1 -352235603#3 116610521#0 116610521#1 116610521#2 116610521#3 -282035549#0 -352235843#0 -426066278 -334712712#1 -334712712#0 -352235705#0 147252877#7 313195147#1 313195147#2 323880237#0 -282035414#8 -282035414#7 -282035414#6 -282035414#5 -282035414#4 -282035331#2 282035585#0 282035585#1 -282035517#0"/>
    </vehicle>
    <vehicle type="2W" id="22" depart="387.00">
        <route edges="315417462#0 315417462#1 315417462#2 315417462#3 315417462#4 315417462#6 315417462#7 315417462#10 315417462#11 315417462#12 315417462#13 315417462#15 315417462#16 315417462#17 315417462#18 1109179959#0 1109179959#1 1109179959#2"/>
    </vehicle>
    <vehicle type="2W" id="23" depart="389.00">
        <route edges="-334712544#1 -352233618 334712616#3 -182703263#0 309189807#2 309189798 182703787#0 182703787#1 182703787#3 182703787#5 182703787#7 182703787#8 182703787#9 313195147#8 313195147#9 313195147#10 314670333#0 314536791#0 314536791#2 314536791#3 314536791#4"/>
    </vehicle>
    <vehicle type="car" id="24" depart="395.60">
        <route edges="-282035517#0 -399365835#0 -282035355#0 1243361871 -282035331#0 -316751880#6 -316751880#5 -316751880#3 -316751880#1 -316751880#0 1459224585#0 1459224585#1 1459224585#2 313195147#2 313195147#3 1051856116 147252877#4 352235705#0 -1338617629 334712712#1 334712712#2 334712712#3 334712712#4 -827086281#1 334712686#0 334712686#2 282036718 -282035649#0 116607733#6 -116607733#6"/>
    </vehicle>
    <vehicle type="2W" id="25" depart="423.40">
        <route edges="-282035331#3 -282035331#2 -282035331#1 -282035331#0 -316751880#6 -316751880#5 -316751880#3 -316751880#1 -316751880#0 1459224585#0 1459224585#1 1459224585#2 313195147#2 313195147#3 1051856116 147252877#4 352235705#0 -1338617629 334712712#1 426066278 -116607285#3 -116607285#2 -116607285#1 -116607285#0 -334712725#1 -334712725#0"/>
    </vehicle>
    <vehicle type="2W" id="26" depart="443.60">
        <route edges="334712712#12 -334712712#12 -334712712#11 -334712712#9 -334712712#8 -334712712#7 -116439948#2 -116439948#1 334712725#0 334712725#1 116607285#0 116607285#1 116607285#2 116607285#3 426066277"/>
    </vehicle>
    <vehicle type="2W" id="27" depart="466.20">
        <route edges="-309194757#0 -281802014#2 -281802014#1 -116439943#2 -116439943#1 315417462#3 315417462#4 315417462#6 315417462#7 315417462#10 315417462#11 315417462#12 315417462#13 315417462#15 315417462#16 315417462#17 315417462#18 1109179959#0 1109179959#1 1109179959#2 1109179959#3 147252877#0 147252877#1 1447357247 313195147#5 313195147#6 -1459224586 282035326#0 1298044478 352235363#0 352235363#1 -265387552#2 -265387553#1 -352235609#1 -352235609#0 265387552#1"/>
    </vehicle>
    <vehicle type="car" id="28" depart="467.20">
        <route edges="-362797286#0 -416929437#1 -416929437#0 352232705#2 309189807#1 182703263#0 182703263#1 182703263#2 352233069#1 182703150#0 182703150#1 182703150#2 728941829#1"/>
    </vehicle>
    <vehicle type="car" id="29" depart="468.20">
        <route edges="116610397#5 -116610397#5 -827086282#2 -1304814662 170870621#2 -352235843#0 -426066278 -334712712#1 -334712712#0 -352235705#0 147252877#7 313195147#1 313195147#2 323880237#0 -282035414#8 -282035414#7 -282035414#6 -282035414#5 -282035414#4 -282035331#2 282035585#0 282035585#1 399365836"/>
    </vehicle>
    <vehicle type="car" id="30" depart="523.60">
        <route edges="-1272950380#0 -1425798343#5 -1425798343#4 -1425798343#3 -1425798343#2 -116610737 116610712#1 116610712#2 116610712#3 116610712#4 116610712#5 116610712#6 827086282#0 827086282#1 -1304814662 170870621#2 -352235843#0 -426066278 -334712712#1 -334712712#0 -352235705#0 147252877#7 313195924 61574816#1 61574816#4 61574816#5 61574816#6 61574816#8 61574816#10"/>
    </vehicle>
    <vehicle type="car" id="31" depart="536.40">
        <route edges="-281802014#0 827086280#2 827086280#3 -827086281#7 -282035574#4 -282035574#2 -282035574#1 -282035574#0 -116610521#2 -116610521#1 116610653#4 -116610397#6 420202143"/>
    </vehicle>
    <vehicle type="car" id="32" depart="562.00">
        <route edges="-282035722#0 315417462#15 282035375 282035660#1 -334712712#8 -334712712#7 -116439948#2 -116439948#1 334712725#0 334712725#1 116607285#0 116607285#1 116607285#2 116607285#3 352235843#0 352235843#1 1304814662 -827086282#1 -827086282#0 -116610712#6 -116610712#5 -116610712#4 -116610712#3 -116610712#2 -116610712#1 116610737 1205204785#0 -1205204785#0"/>
    </vehicle>
    <vehicle type="car" id="33" depart="579.80">
        <route edges="-416865796#1 -416865796#0 -316751880#10 -316751880#8 -316751880#7 -316751880#6 -316751880#5 -316751880#3 -316751880#1 -316751880#0 1459224585#0 1459224585#1 1459224585#2 313195147#2 313195147#3 1051856116 147252877#4 352235705#0 -1338617629 334712712#1 334712712#2 334712712#3 334712712#4 -827086281#1 334712686#0 334712686#2 282036718 282035649#1"/>
    </vehicle>
    <vehicle type="2W" id="34" depart="586.60">
        <route edges="-334712616#1 352233069#5 309189799#1 28092342#0 380186807 380186805 27955945#0 27955945#1 309189798 1353306748#1 -1188033586#1 -1188033586#0 -316751880#11 -316751880#10 -316751880#8 -316751880#7 -316751880#6 -316751880#5 -316751880#3 -316751880#1 -316751880#0 1459224585#0 1459224585#1 1459224585#2 313195147#2 313195147#3 1051856116 147252877#4 352235705#0 -1338617629 334712712#1 334712712#2 334712712#3 334712712#4 334712712#5 334712712#6 334712712#7 334712712#8 334712712#9 334712712#11 334712712#12 315417462#12 315417462#13 315417462#15 315417462#16 315417462#17 315417462#18 1109179959#0 1109179959#1 1109179959#2 1109179959#3 147252877#0"/>
    </vehicle>
    <vehicle type="car" id="35" depart="599.20">
        <route edges="116607733#3 -116439948#5 -116439948#3 -116439948#2 -116439948#1 334712725#0 334712725#1 116607285#0 116607285#1 116607285#2 282035719#0 282035719#1 282035719#2 282035574#1 116609905#0 116609905#1 116609905#2 1189307096#0 1189307096#1 363194032#5 334712687#3 334712687#4 309194757#3 309194757#4 309194757#5 309194757#7 309194757#8 -355699292"/>
    </vehicle>
    <vehicle type="car" id="36" depart="634.40">
        <route edges="116612039#0 116612039#1 -334712541#2 -282035476 282035528#2 147252877#1 1447357247 313195147#5 313195147#6 -1459224586 282035326#0 282035326#1 -282035331#5 -282035331#4 -282035331#3 -282035331#2 -282035331#1 -282035331#0 316751880#7 -282035712#6 -282035712#5 -282035712#4 -282035712#3 -282035712#2"/>
    </vehicle>
    <vehicle type="car" id="37" depart="644.00">
        <route edges="282035414#0 282035414#1 -282035517#3 -282035517#2 -282035517#0 -399365835#0 -282035355#0 -1122038426#1 -1122038426#0"/>
    </vehicle>
    <vehicle type="car" id="38" depart="664.00">
        <route edges="355689671#1 309194757#7 309194757#8 309194757#9 309194757#10 309194757#11 -1272950380#2 -1272950380#1 -1272950380#0 -1425798343#5 -1425798343#4 -1425798343#3 -1425798343#2 -116610737 116610712#1 116610712#2 116610712#3 116610712#4 116610712#5 116611237#0 116611237#1 116611237#2"/>
    </vehicle>
    <vehicle type="car" id="39" depart="688.80">
        <route edges="282035446#1 1298044479#1 1298044479#2 1298044479#3 282035326#0 1298044478 352235363#0 352235363#1 352235363#2 1459224585#2 313195147#2 313195147#3 1051856116 147252877#4 352235705#0 -1338617629 334712712#1 426066278 -116607285#3 282035719#0 282035719#1"/>
    </vehicle>
    <vehicle type="car" id="40" depart="706.00">
        <route edges="-116611028#4 116611028#4 116611028#5 -116611237#0 116610712#6 827086282#0 827086282#1 -1304814662 170870621#2 -352235843#0 -426066278 -334712712#1 -334712712#0 -352235705#0 147252877#7 313195147#1 313195147#2 323880237#0 -282035414#8 -282035414#7 -282035414#6 -282035414#5 -282035414#4 -282035331#2 -282035331#1 -282035331#0 316751880#7 -282035712#6 -282035712#5 -282035712#4 282035325#0"/>
    </vehicle>
    <vehicle type="2W" id="41" depart="719.60">
        <route edges="-334712712#7 -116439948#2 -116439948#1 334712725#0 334712725#1 116607285#0 116607285#1 116607285#2 282035719#0 282035719#1 282035719#2 282035574#1 116609905#0 116609905#1 116609905#2 1189307096#0 -352235603#4 -334712687#1 -334712687#0"/>
    </vehicle>
    <vehicle type="2W" id="42" depart="725.00">
        <route edges="334712570#0 334712570#1 116611028#3 116611028#4 116611028#5 -116611237#0 116610712#6 827086282#0 827086282#1 827086282#2 -116610397#4 116610521#2 282035574#0 282035574#1 282035574#2 282035574#4"/>
    </vehicle>
    <vehicle type="2W" id="43" depart="738.60">
        <route edges="-334712541#1 282035528#0 282035528#1 282035528#2 147252877#1 1447357247 313195147#5 313195147#6 313195147#7 -182703787#9 -182703787#8 -182703787#7 -182703787#5 -182703787#3 -182703787#1 -182703787#0 1353306748#1 1353306747 309189799#0 -352233069#5 -352233069#4 182703524#0 182703524#1 -334712616#1"/>
    </vehicle>
    <vehicle type="2W" id="44" depart="738.80">
        <route edges="-316751880#5 -316751880#3 -316751880#1 -316751880#0 1459224585#0 1459224585#1 1459224585#2 313195147#2 313195147#3 1051856116 147252877#4 352235705#0 -1338617629 334712712#1 334712712#2 334712712#3 334712712#4 334712712#5 334712712#6 -116439948#2 -131337080"/>
    </vehicle>
    <vehicle type="2W" id="45" depart="743.80">
        <route edges="-399365835#1 -399365835#0 -282035355#0 1243361871 -282035331#0 -316751880#6 -316751880#5 -316751880#3 -316751880#1 -316751880#0 1459224585#0 1459224585#1 1459224585#2 313195147#2 313195147#3 1051856116 147252877#4 147252877#7 313195924 61574816#1 61574816#4 -363354026#2 -363354026#1 -363354026#0 117364363#3 415123087#1"/>
    </vehicle>
    <vehicle type="2W" id="46" depart="771.40">
        <route edges="281802013#0 -281802013#0 -281802014#1 -116439943#2 -116439943#1 315417462#3 315417462#4 315417462#6 315417462#7 315417462#10 315417462#11 315417462#12 315417462#13 315417462#15 315417462#16 315417462#17 315417462#18 393419596 380186804 314536791#0 -281795926#4 -281795926#3 -281795926#2 -282035446#0 -282035705#2 -282035705#1 352235987"/>
    </vehicle>
    <vehicle type="2W" id="47" depart="808.00">
        <route edges="1353306747 309189799#0 -352233069#5 -352233069#4 182703524#0 334712544#0 334712544#1 -334712544#1"/>
    </vehicle>
    <vehicle type="car" id="48" depart="837.60">
        <route edges="116610687#1 363194032#4 -1189307096#1 -1189307096#0 -116609905#2 -116609905#1 -116609905#0 -282035574#1 -282035719#2 -282035549#1 -282035549#0 352235843#1 -170870621#1 -170870621#0 170870633#1 416853354#0 -1122033445"/>
    </vehicle>
    <vehicle type="2W" id="49" depart="865.20">
        <route edges="-309194757#9 -309194757#8 -309194757#7 -309194757#5 -309194757#4 -309194757#3 -334712687#4 -334712687#3 -334712687#2 -352235603#3 116610521#0 116610521#1 116610521#2 116610521#3 -282035549#0 -352235843#0 -426066278 -334712712#1 -334712712#0 -352235705#0 147252877#7 313195924 61574816#1 61574816#4 61574816#5 61574816#6 -61574816#7"/>
    </vehicle>
    <vehicle type="2W" id="50" depart="871.20">
        <route edges="116612967#0 116612967#1 116612967#2 -334712541#3 -116612039#1 -116612039#0 282035473 116607322#0 116607322#1 334712725#1 116607285#0 116609794#0 116609794#1 282035574#4 827086281#7 -827086280#3 -827086280#2 281802014#0 281802014#1 281802013#0"/>
    </vehicle>
    <vehicle type="2W" id="51" depart="881.00">
        <route edges="-827086280#3 827086280#3 -827086281#7 -282035574#4 -116609794#1 -116609794#0 -116607285#0 -827086281#3 -827086281#2"/>
    </vehicle>
    <vehicle type="2W" id="52" depart="918.00">
        <route edges="-282035438 1243360358#1 282035712#3 282035712#4 282035712#5 282035712#6 -316751880#7 -316751880#6 -316751880#5 -316751880#3 -316751880#1 -316751880#0 1459224585#0 1459224585#1 1459224585#2 313195147#2 313195147#3 1051856116 147252877#4 352235705#0 -1338617629 334712712#1 426066278 -116607285#3 -116607285#2 -116607285#1 116609794#0 116609794#1 282035574#4 827086281#7 -827086280#3 -827086280#2 281802014#0 -116439943#2 116439943#2"/>
    </vehicle>
    <vehicle type="car" id="53" depart="927.20">
        <route edges="352235054#0 -352236363 -116610837#0 352235603#2 116610521#0 116610521#1 116610521#2 116610521#3 -282035549#0 -352235843#0 -116607285#3 -116607285#2 -116607285#1 -116607285#0 -334712725#1 -334712725#0 116439948#1 116439948#2 334712712#7 334712712#8 334712712#9 334712712#11 334712712#12 315417462#12 315417462#13 315417462#15 315417462#16 315417462#17 315417462#18 393419596 380186804 314536791#0 314536791#2 314536791#3 314536791#4"/>
    </vehicle>
    <vehicle type="car" id="54" depart="935.60">
        <route edges="-281795926#0 -182703787#7 -182703787#5 -182703787#3 -182703787#1 -182703787#0 1353306748#1 -1188033586#1 -1188033586#0 -316751880#11 -316751880#10 -316751880#8 -316751880#7 -316751880#6 -316751880#5 -316751880#3 -316751880#1 -316751880#0 1459224585#0 1459224585#1 1459224585#2 313195147#2 313195147#3 1051856116 147252877#4 352235705#0 -1338617629 334712712#1 334712712#2 334712712#3 -116611730#1 -116611729"/>
    </vehicle>
    <vehicle type="car" id="55" depart="967.40">
        <route edges="116608275#0 281802015#0 281802015#1 281802015#2 334712712#12 315417462#12 315417462#13 315417462#15 315417462#16 315417462#17 315417462#18 393419596 380186804 314536791#0 -281795926#4 -281795926#3 -281795926#2 -282035446#0 -282035705#2 -282035705#1 352235987 182703787#5"/>
    </vehicle>
    <vehicle type="2W" id="56" depart="996.60">
        <route edges="-352232705#2 352232705#2 309189807#1 309189807#2 309189798 1353306748#1 -1188033586#1 -1188033586#0 -316751880#11 -316751880#10 -316751880#8 -316751880#7 -316751880#6 -316751880#5 -316751880#3 -316751880#1 -316751880#0 1459224585#0 1459224585#1 1459224585#2 313195147#2 323880237#0"/>
    </vehicle>
    <vehicle type="car" id="57" depart="1014.20">
        <route edges="282035679 316751880#5 316751880#6 282035331#0 282035331#1"/>
    </vehicle>
    <vehicle type="2W" id="58" depart="1046.00">
        <route edges="-282035499 282035569#1 -182703787#5 -282035326#7 -282035373"/>
    </vehicle>
    <vehicle type="2W" id="59" depart="1095.20">
        <route edges="-827086294#2 -827086294#0 27955945#1 309189798 1353306748#1 -1188033586#1 -1188033586#0 -316751880#11 -316751880#10 -316751880#8 -316751880#7 -316751880#6 -316751880#5 -316751880#3 -316751880#1 -316751880#0 1459224585#0 1459224585#1 1459224585#2 313195147#2 313195147#3 1051856116 147252877#4 352235705#0 -1338617629 334712712#1 334712712#2 334712712#3 334712712#4 334712712#5 334712712#6 334712712#7 334712712#8"/>
    </vehicle>
    <vehicle type="car" id="60" depart="1114.60">
        <route edges="-116611237#1 -116611237#0 116610712#6 827086282#0 827086282#1 -1304814662 170870621#2 -352235843#0 -116607285#3 -116607285#2 -116607285#1 -116607285#0 -334712725#1 -334712725#0 116439948#1 116439948#2 334712712#7 334712712#8 334712712#9 334712712#11 334712712#12 315417462#12 315417462#13 315417462#15 315417462#16 315417462#17 315417462#18 393419596 380186804 314536791#0 314536791#2 314536791#3 314536791#4 416865768#0 416865768#1 -416865768#1 -416865768#0"/>
    </vehicle>
    <vehicle type="car" id="61" depart="1118.80">
        <route edges="147252877#3 147252877#4 352235705#0 -1338617629 334712712#1 334712712#2 334712712#3 -116611730#1 -116611730#0 1159611379#2 116607733#0 -282035343"/>
    </vehicle>
    <vehicle type="car" id="62" depart="1126.80">
        <route edges="282035331#4 282035609#0 282035609#1 352235363#0 352235363#1 352235363#2 1459224585#2 313195147#2 313195147#3 1051856116 147252877#4 352235705#0 -1338617629 334712712#1 426066278 -116607285#3 -116607285#2 -116607285#1 116609794#0"/>
    </vehicle>
    <vehicle type="car" id="63" depart="1158.40">
        <route edges="-282035585#1 -282035585#0 -282035331#1 -282035331#0 -316751880#6 -316751880#5 -316751880#3 -316751880#1 -316751880#0 1459224585#0 1459224585#1 1459224585#2 313195147#2 313195147#3 1051856116 147252877#4 352235705#0 -1338617629 334712712#1 426066278 -116607285#3 282035719#0 282035719#1 282035719#2 282035574#1 116609905#0 116609905#1 116609905#2 1189307096#0 1189307096#1 -363194032#4 -363194032#3 -363194032#2 -116610043#1 -116610043#0 281802013#2"/>
    </vehicle>
    <vehicle type="car" id="64" depart="1160.80">
        <route edges="-1153849694 -827086294#2 -827086294#0 27955945#1 309189798 1353306748#1 -1188033586#1 -1188033586#0 -316751880#11 -316751880#10 -316751880#8 -316751880#7 -316751880#6 -316751880#5 -316751880#3 -316751880#1 -316751880#0 1459224585#0 1459224585#1 1459224585#2 313195147#2 313195147#3 1051856116 147252877#4 352235705#0 -1338617629 334712712#1 334712712#2 334712712#3 -116611730#1 -116611730#0 -282035441#1 -282035441#0 282035743#3"/>
    </vehicle>
    <vehicle type="car" id="65" depart="1163.80">
        <route edges="282035743#1 282035743#2 282035441#0 282035441#1 116611730#0 116611730#1 -334712712#3 -334712712#2 426066278 -116607285#3 -116607285#2 -116607285#1 116609794#0 116609794#1 282035574#4 827086281#7 -827086280#3 -827086280#2 -827086280#1 -827086280#0 315417462#4 315417462#6 -1193907387#1"/>
    </vehicle>
    <vehicle type="2W" id="66" depart="1175.60">
        <route edges="-416853354#0 -170870633#1 170870621#0 170870621#1 170870621#2 282035549#0 282035549#1 282035719#2 282035574#1 116609905#0 116609905#1 116609905#2 1189307096#0 1189307096#1 -363194032#4 -363194032#3 -281802013#3"/>
    </vehicle>
    <vehicle type="2W" id="67" depart="1185.40">
        <route edges="416865792#0 -416865792#0 314536791#3 314536791#4 314536791#6 380186805 27955945#0 27955945#1 309189798 1353306748#1 -1188033586#1 -1188033586#0 -316751880#11 -316751880#10 -316751880#8 -316751880#7 -316751880#6 -316751880#5 -316751880#3 -316751880#1 -316751880#0 1459224585#0 1459224585#1 1459224585#2 313195147#2 313195147#3 1051856116 147252877#4 352235705#0 -1338617629 334712712#1 426066278 352235843#0 282035549#0 -116610521#3 -116610521#2 -116610521#1 116610653#4"/>
    </vehicle>
    <vehicle type="2W" id="68" depart="1207.20">
        <route edges="-116610653#2 -116609905#1 -116609905#0 -282035574#1 -282035719#2 -282035719#1 -282035719#0 -116607285#2 -116607285#1 -116607285#0 -334712725#1 -334712725#0 116439948#1 116439948#2 334712712#7 334712712#8 334712712#9 334712712#11 334712712#12 315417462#12 315417462#13 315417462#15 315417462#16 315417462#17 315417462#18 393419596 380186804 314536791#0 -281795926#4 -281795926#3 -281795926#2 -282035446#0 -282035705#2 -282035705#1 -282035705#0"/>
    </vehicle>
    <vehicle type="2W" id="69" depart="1211.20">
        <route edges="334712570#0 334712570#1 116611028#3 116611028#4 116611028#5 -116611237#0 116610712#6 827086282#0 827086282#1 -1304814662 170870621#2 -352235843#0 -116607285#3 -116607285#2 -116607285#1 -116607285#0 -334712725#1 -334712725#0 116439948#1 116439948#2 334712712#7 334712712#8 334712712#9 334712712#11 334712712#12 315417462#12 315417462#13 315417462#15 315417462#16 315417462#17 315417462#18 393419596 380186804 314536791#0 314536791#2 314536791#3 314536791#4 314536791#6 380186805 27955945#0 27955945#1 1097279783#0"/>
    </vehicle>
    <vehicle type="2W" id="70" depart="1265.40">
        <route edges="827086281#2 827086281#3 -334712725#1 -334712725#0 116439948#1 116439948#2 334712712#7 334712712#8 334712712#9 334712712#11 334712712#12 315417462#12 315417462#13 315417462#15 315417462#16 315417462#17 315417462#18 393419596 380186804 314536791#0 314536791#2 314536791#3 314536791#4 314536791#6 380186805 27955945#0 27955945#1 309189798 1353306748#1 1353306747"/>
    </vehicle>
    <vehicle type="car" id="71" depart="1270.60">
        <route edges="399365833 281802013#3 363194032#3 363194032#4 -1189307096#1 -1189307096#0 -116609905#2 -116609905#1 -116609905#0 -282035574#1 -282035719#2 -282035719#1 -282035719#0 116607285#3 -426066278 -334712712#1 -334712712#0 -352235705#0 147252877#7 313195147#1 313195147#2 323880237#0 -282035414#8 352235363#1"/>
    </vehicle>
    <vehicle type="car" id="72" depart="1270.80">
        <route edges="1304814662 827086282#2 -116610397#4 116610521#2 282035574#0 282035574#1 282035574#2"/>
    </vehicle>
    <vehicle type="2W" id="73" depart="1282.20">
        <route edges="116610687#1 363194032#4 -1189307096#1 -1189307096#0 -116609905#2 -116609905#1 -116609905#0 -282035574#1 -282035719#2 -282035719#1 -282035719#0 116607285#3 -426066278 -334712712#1 -334712712#0 -352235705#0 147252877#7 313195147#1 313195147#2 323880237#0 -282035414#8 352235363#1 -265387552#2 -265387552#1 352235609#0 352235609#1"/>
    </vehicle>
    <vehicle type="car" id="74" depart="1294.20">
        <route edges="282035609#1 352235363#0 352235363#1 352235363#2 1459224585#2 313195147#2 313195147#3 1051856116 147252877#4 352235705#0 -1338617629 334712712#1 426066278 -116607285#3 -116607285#2 -116607285#1 -116607285#0 -334712725#1 -334712725#0 116439948#1 116439948#2"/>
    </vehicle>
    <vehicle type="2W" id="75" depart="1330.20">