<?xml version="1.0" encoding="UTF-8"?>

<!-- generated on 2026-03-25T17:41:07.206480+05:30 by Eclipse SUMO netconvert 1.25.0
<netconvertConfiguration xmlns:xsi="http://www.w3.org/2001/XMLSchema-instance" xsi:noNamespaceSchemaLocation="http://sumo.dlr.de/xsd/netconvertConfiguration.xsd">

    <input>
        <osm-files value="mehd_tol.osm"/>
    </input>

    <output>
        <output-file value="mehd_tol.net.xml"/>
    </output>

    <projection>
        <proj.utm value="true"/>
    </projection>

    <processing>
        <geometry.remove value="true"/>
        <roundabouts.guess value="true"/>
    </processing>

    <tls_building>
        <tls.join value="true"/>
        <tls.guess-signals value="true"/>
    </tls_building>

    <ramp_guessing>
        <ramps.guess value="true"/>
    </ramp_guessing>

    <edge_removal>
        <keep-edges.by-vclass value="passenger,motorcycle,emergency"/>
        <keep-edges.components value="1"/>
        <remove-edges.isolated value="true"/>
    </edge_removal>

    <junctions>
        <no-internal-links value="false"/>
        <junctions.join value="true"/>
    </junctions>

    <formats>
        <osm.sidewalks value="false"/>
        <osm.crossings value="false"/>
    </formats>

</netconvertConfiguration>
-->

<net version="1.20" junctionCornerDetail="5" limitTurnSpeed="5.50" xmlns:xsi="http://www.w3.org/2001/XMLSchema-instance" xsi:noNamespaceSchemaLocation="http://sumo.dlr.de/xsd/net_file.xsd">

    <location netOffset="-225752.44,-1923063.67" convBoundary="0.00,0.00,2560.67,2405.93" origBoundary="78.418738,17.374923,78.443390,17.408397" projParameter="+proj=utm +zone=44 +ellps=WGS84 +datum=WGS84 +units=m +no_defs"/>

    <type id="highway.living_street" priority="2" numLanes="1" speed="2.78" disallow="tram rail_urban rail rail_electric rail_fast ship container cable_car subway aircraft wheelchair scooter drone" oneway="0"/>
    <type id="highway.motorway_link" priority="9" numLanes="1" speed="22.22" allow="private emergency authority army vip passenger hov taxi bus coach delivery truck trailer motorcycle evehicle custom1 custom2" oneway="1"/>
    <type id="highway.primary" priority="12" numLanes="2" speed="27.78" disallow="tram rail_urban rail rail_electric rail_fast ship container cable_car subway aircraft wheelchair scooter drone" oneway="0"/>
    <type id="highway.primary_link" priority="7" numLanes="1" speed="22.22" disallow="tram rail_urban rail rail_electric rail_fast ship container cable_car subway aircraft wheelchair scooter drone" oneway="0"/>
    <type id="highway.residential" priority="3" numLanes="1" speed="13.89" disallow="tram rail_urban rail rail_electric rail_fast ship container cable_car subway aircraft wheelchair scooter drone" oneway="0"/>
    <type id="highway.secondary" priority="11" numLanes="1" speed="27.78" disallow="tram rail_urban rail rail_electric rail_fast ship container cable_car subway aircraft wheelchair scooter drone" oneway="0"/>
    <type id="highway.tertiary" priority="10" numLanes="1" speed="22.22" disallow="tram rail_urban rail rail_electric rail_fast ship container cable_car subway aircraft wheelchair scooter drone" oneway="0"/>
    <type id="highway.track" priority="1" numLanes="1" speed="5.56" allow="pedestrian motorcycle moped bicycle" oneway="0"/>
    <type id="highway.trunk" priority="13" numLanes="2" speed="27.78" disallow="pedestrian bicycle tram rail_urban rail rail_electric rail_fast ship container cable_car subway aircraft wheelchair scooter drone" oneway="0"/>
    <type id="highway.trunk_link" priority="8" numLanes="1" speed="22.22" disallow="pedestrian bicycle tram rail_urban rail rail_electric rail_fast ship container cable_car subway aircraft wheelchair scooter drone" oneway="0"/>

    <edge id=":10142227658_0" function="internal">
        <lane id=":10142227658_0_0" index="0" disallow="bicycle tram rail_urban rail rail_electric rail_fast ship container cable_car subway aircraft wheelchair scooter drone" speed="16.67" length="14.95" shape="2221.92,1976.64 2206.94,1976.65"/>
        <lane id=":10142227658_0_1" index="1" disallow="bicycle tram rail_urban rail rail_electric rail_fast ship container cable_car subway aircraft wheelchair scooter drone" speed="16.67" length="14.95" shape="2221.92,1973.44 2206.98,1973.45"/>
        <lane id=":10142227658_0_2" index="2" disallow="bicycle tram rail_urban rail rail_electric rail_fast ship container cable_car subway aircraft wheelchair scooter drone" speed="16.67" length="14.95" shape="2221.92,1970.24 2207.01,1970.25"/>
    </edge>
    <edge id=":10142227658_3" function="internal">
        <lane id=":10142227658_3_0" index="0" disallow="bicycle tram rail_urban rail rail_electric rail_fast ship container cable_car subway aircraft wheelchair scooter drone" speed="16.67" length="15.61" shape="2220.70,1965.34 2217.82,1967.61 2215.17,1970.31 2211.86,1972.55 2206.98,1973.45"/>
        <lane id=":10142227658_3_1" index="1" disallow="bicycle tram rail_urban rail rail_electric rail_fast ship container cable_car subway aircraft wheelchair scooter drone" speed="16.67" length="15.61" shape="2220.70,1965.34 2217.72,1967.11 2214.93,1968.71 2211.60,1969.84 2207.01,1970.25"/>
    </edge>
    <edge id=":10264399806_0" function="internal">
        <lane id=":10264399806_0_0" index="0" disallow="tram rail_urban rail rail_electric rail_fast ship container cable_car subway aircraft wheelchair scooter drone" speed="3.65" length="4.67" shape="1016.31,1230.14 1017.09,1228.93 1017.89,1228.52 1018.69,1228.91 1019.51,1230.10"/>
    </edge>
    <edge id=":10279480000_0" function="internal">
        <lane id=":10279480000_0_0" index="0" allow="private emergency authority army vip passenger hov taxi bus coach delivery truck trailer motorcycle evehicle custom1 custom2" speed="22.22" length="8.89" shape="1139.21,919.88 1139.51,917.56 1138.46,915.87 1137.30,914.12 1137.22,911.66"/>
    </edge>
    <edge id=":10281718256_0" function="internal">
        <lane id=":10281718256_0_0" index="0" disallow="tram rail_urban rail rail_electric rail_fast ship container cable_car subway aircraft wheelchair scooter drone" speed="5.81" length="7.17" shape="1320.48,1840.36 1320.26,1837.90 1319.65,1836.16 1318.64,1835.14 1317.25,1834.85"/>
    </edge>
    <edge id=":10281718256_1" function="internal">
        <lane id=":10281718256_1_0" index="0" disallow="tram rail_urban rail rail_electric rail_fast ship container cable_car subway aircraft wheelchair scooter drone" speed="13.89" length="14.47" shape="1320.48,1840.36 1320.10,1825.90"/>
    </edge>
    <edge id=":10281718256_2" function="internal">
        <lane id=":10281718256_2_0" index="0" disallow="tram rail_urban rail rail_electric rail_fast ship container cable_car subway aircraft wheelchair scooter drone" speed="7.97" length="4.00" shape="1320.48,1840.36 1321.22,1837.16 1321.62,1836.57"/>
    </edge>
    <edge id=":10281718256_3" function="internal">
        <lane id=":10281718256_3_0" index="0" disallow="tram rail_urban rail rail_electric rail_fast ship container cable_car subway aircraft wheelchair scooter drone" speed="3.65" length="1.44" shape="1320.48,1840.36 1321.27,1839.16"/>
    </edge>
    <edge id=":10281718256_16" function="internal">
        <lane id=":10281718256_16_0" index="0" disallow="tram rail_urban rail rail_electric rail_fast ship container cable_car subway aircraft wheelchair scooter drone" speed="7.97" length="9.66" shape="1321.62,1836.57 1323.21,1834.22 1326.00,1832.03 1329.14,1831.09"/>
    </edge>
    <edge id=":10281718256_17" function="internal">
        <lane id=":10281718256_17_0" index="0" disallow="tram rail_urban rail rail_electric rail_fast ship container cable_car subway aircraft wheelchair scooter drone" speed="3.65" length="3.23" shape="1321.27,1839.16 1322.07,1838.75 1322.87,1839.14 1323.68,1840.33"/>
    </edge>
    <edge id=":10281718256_4" function="internal">
        <lane id=":10281718256_4_0" index="0" disallow="tram rail_urban rail rail_electric rail_fast ship container cable_car subway aircraft wheelchair scooter drone" speed="6.69" length="9.32" shape="1329.29,1834.29 1326.81,1834.77 1325.06,1835.93 1324.01,1837.79 1323.68,1840.33"/>
    </edge>
    <edge id=":10281718256_5" function="internal">
        <lane id=":10281718256_5_0" index="0" disallow="tram rail_urban rail rail_electric rail_fast ship container cable_car subway aircraft wheelchair scooter drone" speed="5.56" length="12.05" shape="1329.29,1834.29 1317.25,1834.85"/>
    </edge>
    <edge id=":10281718256_6" function="internal">
        <lane id=":10281718256_6_0" index="0" disallow="tram rail_urban rail rail_electric rail_fast ship container cable_car subway aircraft wheelchair scooter drone" speed="7.79" length="13.45" shape="1329.29,1834.29 1326.13,1833.64 1323.21,1831.72 1321.03,1828.98 1320.10,1825.90"/>
    </edge>
    <edge id=":10281718256_7" function="internal">
        <lane id=":10281718256_7_0" index="0" disallow="tram rail_urban rail rail_electric rail_fast ship container cable_car subway aircraft wheelchair scooter drone" speed="3.65" length="4.67" shape="1329.29,1834.29 1328.05,1833.55 1327.61,1832.76 1327.98,1831.95 1329.14,1831.09"/>
    </edge>
    <edge id=":10281718256_8" function="internal">
        <lane id=":10281718256_8_0" index="0" disallow="tram rail_urban rail rail_electric rail_fast ship container cable_car subway aircraft wheelchair scooter drone" speed="6.50" length="9.03" shape="1323.29,1825.76 1323.75,1828.19 1324.88,1829.89 1326.67,1830.86 1329.14,1831.09"/>
    </edge>
    <edge id=":10281718256_9" function="internal">
        <lane id=":10281718256_9_0" index="0" disallow="tram rail_urban rail rail_electric rail_fast ship container cable_car subway aircraft wheelchair scooter drone" speed="13.89" length="14.58" shape="1323.29,1825.76 1323.68,1840.33"/>
    </edge>
    <edge id=":10281718256_10" function="internal">
        <lane id=":10281718256_10_0" index="0" disallow="tram rail_urban rail rail_electric rail_fast ship container cable_car subway aircraft wheelchair scooter drone" speed="7.32" length="4.72" shape="1323.29,1825.76 1322.87,1828.69 1322.14,1830.28"/>
    </edge>
    <edge id=":10281718256_11" function="internal">
        <lane id=":10281718256_11_0" index="0" disallow="tram rail_urban rail rail_electric rail_fast ship container cable_car subway aircraft wheelchair scooter drone" speed="3.65" length="1.44" shape="1323.29,1825.76 1322.55,1826.99"/>
    </edge>
    <edge id=":10281718256_18" function="internal">
        <lane id=":10281718256_18_0" index="0" disallow="tram rail_urban rail rail_electric rail_fast ship container cable_car subway aircraft wheelchair scooter drone" speed="7.32" length="6.98" shape="1322.14,1830.28 1321.54,1831.61 1319.57,1833.88 1317.25,1834.85"/>
    </edge>
    <edge id=":10281718256_19" function="internal">
        <lane id=":10281718256_19_0" index="0" disallow="tram rail_urban rail rail_electric rail_fast ship container cable_car subway aircraft wheelchair scooter drone" speed="3.65" length="3.23" shape="1322.55,1826.99 1321.76,1827.42 1320.95,1827.06 1320.10,1825.90"/>
    </edge>
    <edge id=":10281718256_12" function="internal">
        <lane id=":10281718256_12_0" index="0" disallow="tram rail_urban rail rail_electric rail_fast ship container cable_car subway aircraft wheelchair scooter drone" speed="5.92" length="7.28" shape="1317.07,1831.66 1318.48,1831.24 1319.46,1830.14 1320.00,1828.36 1320.10,1825.90"/>
    </edge>
    <edge id=":10281718256_13" function="internal">
        <lane id=":10281718256_13_0" index="0" disallow="tram rail_urban rail rail_electric rail_fast ship container cable_car subway aircraft wheelchair scooter drone" speed="5.56" length="12.09" shape="1317.07,1831.66 1329.14,1831.09"/>
    </edge>
    <edge id=":10281718256_14" function="internal">
        <lane id=":10281718256_14_0" index="0" disallow="tram rail_urban rail rail_electric rail_fast ship container cable_car subway aircraft wheelchair scooter drone" speed="7.23" length="11.73" shape="1317.07,1831.66 1319.47,1832.44 1321.58,1834.57 1323.09,1837.42 1323.68,1840.33"/>
    </edge>
    <edge id=":10281718256_15" function="internal">
        <lane id=":10281718256_15_0" index="0" disallow="tram rail_urban rail rail_electric rail_fast ship container cable_car subway aircraft wheelchair scooter drone" speed="3.65" length="4.67" shape="1317.07,1831.66 1318.31,1832.39 1318.75,1833.16 1318.40,1833.98 1317.25,1834.85"/>
    </edge>
    <edge id=":10281718259_0" function="internal">
        <lane id=":10281718259_0_0" index="0" disallow="tram rail_urban rail rail_electric rail_fast ship container cable_car subway aircraft wheelchair scooter drone" speed="6.65" length="9.22" shape="1321.90,1695.00 1321.45,1692.48 1320.33,1690.68 1318.55,1689.61 1316.11,1689.26"/>
    </edge>
    <edge id=":10281718259_1" function="internal">
        <lane id=":10281718259_1_0" index="0" disallow="tram rail_urban rail rail_electric rail_fast ship container cable_car subway aircraft wheelchair scooter drone" speed="7.94" length="14.33" shape="1321.90,1695.00 1322.30,1691.07 1323.86,1688.26 1326.60,1686.56 1330.50,1685.98"/>
    </edge>
    <edge id=":10281718259_2" function="internal">
        <lane id=":10281718259_2_0" index="0" disallow="tram rail_urban rail rail_electric rail_fast ship container cable_car subway aircraft wheelchair scooter drone" speed="3.65" length="4.67" shape="1321.90,1695.00 1322.65,1693.77 1323.43,1693.33 1324.25,1693.70 1325.10,1694.87"/>
    </edge>
    <edge id=":10281718259_3" function="internal">
        <lane id=":10281718259_3_0" index="0" disallow="tram rail_urban rail rail_electric rail_fast ship container cable_car subway aircraft wheelchair scooter drone" speed="6.43" length="9.03" shape="1330.52,1689.18 1328.06,1689.55 1326.33,1690.62 1325.35,1692.39 1325.10,1694.87"/>
    </edge>
    <edge id=":10281718259_4" function="internal">
        <lane id=":10281718259_4_0" index="0" disallow="tram rail_urban rail rail_electric rail_fast ship container cable_car subway aircraft wheelchair scooter drone" speed="13.89" length="14.40" shape="1330.52,1689.18 1316.11,1689.26"/>
    </edge>
    <edge id=":10281718259_5" function="internal">
        <lane id=":10281718259_5_0" index="0" disallow="tram rail_urban rail rail_electric rail_fast ship container cable_car subway aircraft wheelchair scooter drone" speed="3.65" length="1.44" shape="1330.52,1689.18 1329.31,1688.39"/>
    </edge>
    <edge id=":10281718259_9" function="internal">
        <lane id=":10281718259_9_0" index="0" disallow="tram rail_urban rail rail_electric rail_fast ship container cable_car subway aircraft wheelchair scooter drone" speed="3.65" length="3.23" shape="1329.31,1688.39 1328.91,1687.59 1329.30,1686.79 1330.50,1685.98"/>
    </edge>
    <edge id=":10281718259_6" function="internal">
        <lane id=":10281718259_6_0" index="0" disallow="tram rail_urban rail rail_electric rail_fast ship container cable_car subway aircraft wheelchair scooter drone" speed="13.89" length="14.40" shape="1316.10,1686.06 1330.50,1685.98"/>
    </edge>
    <edge id=":10281718259_7" function="internal">
        <lane id=":10281718259_7_0" index="0" disallow="tram rail_urban rail rail_electric rail_fast ship container cable_car subway aircraft wheelchair scooter drone" speed="8.12" length="4.01" shape="1316.10,1686.06 1319.89,1686.59 1320.04,1686.68"/>
    </edge>
    <edge id=":10281718259_8" function="internal">
        <lane id=":10281718259_8_0" index="0" disallow="tram rail_urban rail rail_electric rail_fast ship container cable_car subway aircraft wheelchair scooter drone" speed="3.65" length="1.44" shape="1316.10,1686.06 1317.30,1686.85"/>
    </edge>
    <edge id=":10281718259_10" function="internal">
        <lane id=":10281718259_10_0" index="0" disallow="tram rail_urban rail rail_electric rail_fast ship container cable_car subway aircraft wheelchair scooter drone" speed="8.12" length="10.24" shape="1320.04,1686.68 1322.66,1688.24 1324.40,1690.99 1325.10,1694.87"/>
    </edge>
    <edge id=":10281718259_11" function="internal">
        <lane id=":10281718259_11_0" index="0" disallow="tram rail_urban rail rail_electric rail_fast ship container cable_car subway aircraft wheelchair scooter drone" speed="3.65" length="3.23" shape="1317.30,1686.85 1317.71,1687.65 1317.31,1688.45 1316.11,1689.26"/>
    </edge>
    <edge id=":10599449770_0" function="internal">
        <lane id=":10599449770_0_0" index="0" disallow="tram rail_urban rail rail_electric rail_fast ship container cable_car subway aircraft wheelchair scooter drone" speed="7.47" length="9.45" shape="2268.19,1433.34 2266.22,1432.06 2264.11,1431.58 2261.85,1431.90 2259.45,1433.02"/>
    </edge>
    <edge id=":10599449770_1" function="internal">
        <lane id=":10599449770_1_0" index="0" disallow="tram rail_urban rail rail_electric rail_fast ship container cable_car subway aircraft wheelchair scooter drone" speed="22.22" length="13.65" shape="2268.19,1433.34 2265.64,1430.89 2263.48,1428.42 2261.55,1425.75 2259.70,1422.73"/>
    </edge>
    <edge id=":10599449770_2" function="internal">
        <lane id=":10599449770_2_0" index="0" disallow="tram rail_urban rail rail_electric rail_fast ship container cable_car subway aircraft wheelchair scooter drone" speed="3.65" length="1.44" shape="2268.19,1433.34 2267.82,1431.95"/>
    </edge>
    <edge id=":10599449770_9" function="internal">
        <lane id=":10599449770_9_0" index="0" disallow="tram rail_urban rail rail_electric rail_fast ship container cable_car subway aircraft wheelchair scooter drone" speed="3.65" length="3.23" shape="2267.82,1431.95 2268.06,1431.08 2268.88,1430.75 2270.31,1430.94"/>
    </edge>
    <edge id=":10599449770_3" function="internal">
        <lane id=":10599449770_3_0" index="0" disallow="tram rail_urban rail rail_electric rail_fast ship container cable_car subway aircraft wheelchair scooter drone" speed="22.22" length="12.62" shape="2262.48,1421.14 2264.23,1424.03 2265.92,1426.43 2267.86,1428.62 2270.31,1430.94"/>
    </edge>
    <edge id=":10599449770_4" function="internal">
        <lane id=":10599449770_4_0" index="0" disallow="tram rail_urban rail rail_electric rail_fast ship container cable_car subway aircraft wheelchair scooter drone" speed="8.01" length="3.79" shape="2262.48,1421.14 2263.88,1424.66"/>
    </edge>
    <edge id=":10599449770_5" function="internal">
        <lane id=":10599449770_5_0" index="0" disallow="tram rail_urban rail rail_electric rail_fast ship container cable_car subway aircraft wheelchair scooter drone" speed="3.65" length="1.44" shape="2262.48,1421.14 2262.38,1422.58"/>
    </edge>
    <edge id=":10599449770_10" function="internal">
        <lane id=":10599449770_10_0" index="0" disallow="tram rail_urban rail rail_electric rail_fast ship container cable_car subway aircraft wheelchair scooter drone" speed="8.01" length="10.10" shape="2263.88,1424.66 2263.85,1427.82 2262.37,1430.60 2259.45,1433.02"/>
    </edge>
    <edge id=":10599449770_11" function="internal">
        <lane id=":10599449770_11_0" index="0" disallow="tram rail_urban rail rail_electric rail_fast ship container cable_car subway aircraft wheelchair scooter drone" speed="3.65" length="3.23" shape="2262.38,1422.58 2261.89,1423.32 2261.00,1423.37 2259.70,1422.73"/>
    </edge>
    <edge id=":10599449770_6" function="internal">
        <lane id=":10599449770_6_0" index="0" disallow="tram rail_urban rail rail_electric rail_fast ship container cable_car subway aircraft wheelchair scooter drone" speed="6.51" length="8.84" shape="2257.77,1430.29 2259.63,1428.75 2260.57,1426.98 2260.60,1424.97 2259.70,1422.73"/>
    </edge>
    <edge id=":10599449770_7" function="internal">
        <lane id=":10599449770_7_0" index="0" disallow="tram rail_urban rail rail_electric rail_fast ship container cable_car subway aircraft wheelchair scooter drone" speed="8.84" length="13.56" shape="2257.77,1430.29 2261.17,1428.73 2264.39,1428.32 2267.44,1429.05 2270.31,1430.94"/>
    </edge>
    <edge id=":10599449770_8" function="internal">
        <lane id=":10599449770_8_0" index="0" disallow="tram rail_urban rail rail_electric rail_fast ship container cable_car subway aircraft wheelchair scooter drone" speed="3.65" length="4.67" shape="2257.77,1430.29 2259.21,1430.35 2259.97,1430.82 2260.05,1431.71 2259.45,1433.02"/>
    </edge>
    <edge id=":10731094595_0" function="internal">
        <lane id=":10731094595_0_0" index="0" disallow="tram rail_urban rail rail_electric rail_fast ship container cable_car subway aircraft wheelchair scooter drone" speed="13.89" length="14.40" shape="1034.68,1996.73 1020.29,1996.00"/>
    </edge>
    <edge id=":10731094595_1" function="internal">
        <lane id=":10731094595_1_0" index="0" disallow="tram rail_urban rail rail_electric rail_fast ship container cable_car subway aircraft wheelchair scooter drone" speed="7.94" length="4.10" shape="1034.68,1996.73 1030.80,1995.97 1030.68,1995.89"/>
    </edge>
    <edge id=":10731094595_2" function="internal">
        <lane id=":10731094595_2_0" index="0" disallow="tram rail_urban rail rail_electric rail_fast ship container cable_car subway aircraft wheelchair scooter drone" speed="3.65" length="1.44" shape="1034.68,1996.73 1033.52,1995.87"/>
    </edge>
    <edge id=":10731094595_9" function="internal">
        <lane id=":10731094595_9_0" index="0" disallow="tram rail_urban rail rail_electric rail_fast ship container cable_car subway aircraft wheelchair scooter drone" speed="7.94" length="10.24" shape="1030.68,1995.89 1028.15,1994.15 1026.71,1991.27 1026.49,1987.33"/>
    </edge>
    <edge id=":10731094595_10" function="internal">
        <lane id=":10731094595_10_0" index="0" disallow="tram rail_urban rail rail_electric rail_fast ship container cable_car subway aircraft wheelchair scooter drone" speed="3.65" length="3.23" shape="1033.52,1995.87 1033.16,1995.05 1033.60,1994.27 1034.84,1993.54"/>
    </edge>
    <edge id=":10731094595_3" function="internal">
        <lane id=":10731094595_3_0" index="0" disallow="tram rail_urban rail rail_electric rail_fast ship container cable_car subway aircraft wheelchair scooter drone" speed="6.43" length="9.03" shape="1029.68,1987.61 1029.82,1990.09 1030.72,1991.91 1032.40,1993.06 1034.84,1993.54"/>
    </edge>
    <edge id=":10731094595_4" function="internal">
        <lane id=":10731094595_4_0" index="0" disallow="tram rail_urban rail rail_electric rail_fast ship container cable_car subway aircraft wheelchair scooter drone" speed="8.12" length="14.24" shape="1029.68,1987.61 1028.80,1991.44 1026.95,1994.12 1024.11,1995.64 1020.29,1996.00"/>
    </edge>
    <edge id=":10731094595_5" function="internal">
        <lane id=":10731094595_5_0" index="0" disallow="tram rail_urban rail rail_electric rail_fast ship container cable_car subway aircraft wheelchair scooter drone" speed="3.65" length="4.67" shape="1029.68,1987.61 1028.78,1988.74 1027.95,1989.06 1027.19,1988.60 1026.49,1987.33"/>
    </edge>
    <edge id=":10731094595_6" function="internal">
        <lane id=":10731094595_6_0" index="0" disallow="tram rail_urban rail rail_electric rail_fast ship container cable_car subway aircraft wheelchair scooter drone" speed="6.65" length="9.22" shape="1020.45,1992.80 1022.91,1992.56 1024.73,1991.57 1025.93,1989.83 1026.49,1987.33"/>
    </edge>
    <edge id=":10731094595_7" function="internal">
        <lane id=":10731094595_7_0" index="0" disallow="tram rail_urban rail rail_electric rail_fast ship container cable_car subway aircraft wheelchair scooter drone" speed="13.89" length="14.40" shape="1020.45,1992.80 1034.84,1993.54"/>
    </edge>
    <edge id=":10731094595_8" function="internal">
        <lane id=":10731094595_8_0" index="0" disallow="tram rail_urban rail rail_electric rail_fast ship container cable_car subway aircraft wheelchair scooter drone" speed="3.65" length="1.44" shape="1020.45,1992.80 1021.61,1993.66"/>
    </edge>
    <edge id=":10731094595_11" function="internal">
        <lane id=":10731094595_11_0" index="0" disallow="tram rail_urban rail rail_electric rail_fast ship container cable_car subway aircraft wheelchair scooter drone" speed="3.65" length="3.23" shape="1021.61,1993.66 1021.97,1994.48 1021.53,1995.26 1020.29,1996.00"/>
    </edge>
    <edge id=":10758122656_0" function="internal">
        <lane id=":10758122656_0_0" index="0" disallow="tram rail_urban rail rail_electric rail_fast ship container cable_car subway aircraft wheelchair scooter drone" speed="3.65" length="4.67" shape="2124.35,1294.50 2123.00,1293.98 2122.44,1293.29 2122.65,1292.42 2123.65,1291.38"/>
    </edge>
    <edge id=":11031954205_0" function="internal">
        <lane id=":11031954205_0_0" index="0" disallow="tram rail_urban rail rail_electric rail_fast ship container cable_car subway aircraft wheelchair scooter drone" speed="13.89" length="14.68" shape="856.20,1736.21 852.99,1734.24 849.82,1732.33 846.52,1730.87 842.96,1730.30"/>
    </edge>
    <edge id=":11031954205_1" function="internal">
        <lane id=":11031954205_1_0" index="0" disallow="tram rail_urban rail rail_electric rail_fast ship container cable_car subway aircraft wheelchair scooter drone" speed="10.89" length="3.93" shape="856.20,1736.21 853.64,1734.17 853.28,1733.62"/>
    </edge>
    <edge id=":11031954205_2" function="internal">
        <lane id=":11031954205_2_0" index="0" disallow="tram rail_urban rail rail_electric rail_fast ship container cable_car subway aircraft wheelchair scooter drone" speed="3.65" length="1.44" shape="856.20,1736.21 855.55,1734.92"/>
    </edge>
    <edge id=":11031954205_9" function="internal">
        <lane id=":11031954205_9_0" index="0" disallow="tram rail_urban rail rail_electric rail_fast ship container cable_car subway aircraft wheelchair scooter drone" speed="10.89" length="11.29" shape="853.28,1733.62 851.73,1731.29 850.47,1727.58 849.85,1723.04"/>
    </edge>
    <edge id=":11031954205_10" function="internal">
        <lane id=":11031954205_10_0" index="0" disallow="tram rail_urban rail rail_electric rail_fast ship container cable_car subway aircraft wheelchair scooter drone" speed="3.65" length="3.23" shape="855.55,1734.92 855.59,1734.03 856.33,1733.53 857.77,1733.42"/>
    </edge>
    <edge id=":11031954205_3" function="internal">
        <lane id=":11031954205_3_0" index="0" disallow="tram rail_urban rail rail_electric rail_fast ship container cable_car subway aircraft wheelchair scooter drone" speed="9.73" length="12.04" shape="853.04,1722.85 853.52,1726.58 854.47,1729.58 855.89,1731.86 857.77,1733.42"/>
    </edge>
    <edge id=":11031954205_4" function="internal">
        <lane id=":11031954205_4_0" index="0" disallow="tram rail_urban rail rail_electric rail_fast ship container cable_car subway aircraft wheelchair scooter drone" speed="7.89" length="14.34" shape="853.04,1722.85 852.58,1726.10 850.74,1728.42 847.54,1729.82 842.96,1730.30"/>
    </edge>
    <edge id=":11031954205_5" function="internal">
        <lane id=":11031954205_5_0" index="0" disallow="tram rail_urban rail rail_electric rail_fast ship container cable_car subway aircraft wheelchair scooter drone" speed="3.65" length="4.67" shape="853.04,1722.85 852.32,1724.10 851.54,1724.55 850.72,1724.19 849.85,1723.04"/>
    </edge>
    <edge id=":11031954205_6" function="internal">
        <lane id=":11031954205_6_0" index="0" disallow="tram rail_urban rail rail_electric rail_fast ship container cable_car subway aircraft wheelchair scooter drone" speed="6.03" length="7.98" shape="844.20,1727.13 846.76,1726.88 848.56,1726.12 849.59,1724.84 849.85,1723.04"/>
    </edge>
    <edge id=":11031954205_7" function="internal">
        <lane id=":11031954205_7_0" index="0" disallow="tram rail_urban rail rail_electric rail_fast ship container cable_car subway aircraft wheelchair scooter drone" speed="13.89" length="15.14" shape="844.20,1727.13 847.82,1727.77 851.23,1729.36 854.52,1731.40 857.77,1733.42"/>
    </edge>
    <edge id=":11031954205_8" function="internal">
        <lane id=":11031954205_8_0" index="0" disallow="tram rail_urban rail rail_electric rail_fast ship container cable_car subway aircraft wheelchair scooter drone" speed="3.73" length="1.54" shape="844.20,1727.13 845.08,1728.39"/>
    </edge>
    <edge id=":11031954205_11" function="internal">
        <lane id=":11031954205_11_0" index="0" disallow="tram rail_urban rail rail_electric rail_fast ship container cable_car subway aircraft wheelchair scooter drone" speed="3.73" length="3.44" shape="845.08,1728.39 845.16,1729.34 844.46,1729.98 842.96,1730.30"/>
    </edge>
    <edge id=":11032157505_0" function="internal">
        <lane id=":11032157505_0_0" index="0" disallow="tram rail_urban rail rail_electric rail_fast ship container cable_car subway aircraft wheelchair scooter drone" speed="3.65" length="4.67" shape="2063.43,1654.42 2063.09,1655.82 2062.48,1656.47 2061.59,1656.37 2060.43,1655.52"/>
    </edge>
    <edge id=":11033928926_0" function="internal">
        <lane id=":11033928926_0_0" index="0" disallow="tram rail_urban rail rail_electric rail_fast ship container cable_car subway aircraft wheelchair scooter drone" speed="3.65" length="4.67" shape="952.86,1749.04 951.86,1750.08 951.00,1750.34 950.28,1749.80 949.70,1748.48"/>
    </edge>
    <edge id=":11066373428_0" function="internal">
        <lane id=":11066373428_0_0" index="0" disallow="tram rail_urban rail rail_electric rail_fast ship container cable_car subway aircraft wheelchair scooter drone" speed="3.65" length="4.67" shape="2128.97,1325.90 2130.30,1326.46 2130.85,1327.16 2130.61,1328.03 2129.59,1329.04"/>
    </edge>
    <edge id=":11082593584_0" function="internal">
        <lane id=":11082593584_0_0" index="0" disallow="tram rail_urban rail rail_electric rail_fast ship container cable_car subway aircraft wheelchair scooter drone" speed="3.65" length="4.67" shape="1959.13,1951.33 1960.49,1951.80 1961.08,1952.48 1960.89,1953.35 1959.93,1954.43"/>
    </edge>