<?xml version="1.0" encoding="UTF-8"?>

<!-- generated on 2026-03-25 18:20:56.407193 by Eclipse SUMO randomTrips.py v1_25_0+0000-ac6c5a6752d
<configuration>
    <net-file value="mehd_tol.net.xml"/>
    <route-file value="mehd_tol.rou.xml"/>
    <min-distance value="200.0"/>
    <period value="14.4"/>
    <random-depart value="True"/>
</configuration>
-->

<routes xmlns:xsi="http://www.w3.org/2001/XMLSchema-instance" xsi:noNamespaceSchemaLocation="http://sumo.dlr.de/xsd/routes_file.xsd">
    <trip id="0" depart="31.80" from="-282035719#2" to="116607733#9"/>
    <trip id="1" depart="76.20" from="352235363#0" to="334712712#3"/>
    <trip id="2" depart="125.00" from="282035747" to="207472304#0"/>
    <trip id="3" depart="154.20" from="-282035712#6" to="282035719#0"/>
    <trip id="4" depart="154.40" from="116610712#2" to="-61574816#4"/>
    <trip id="5" depart="173.40" from="-116439948#1" to="-116611028#4"/>
    <trip id="6" depart="186.20" from="116610653#4" to="334712616#2"/>
    <trip id="7" depart="210.20" from="116612967#3" to="-182703150#1"/>
    <trip id="8" depart="215.80" from="-1304814662" to="-334712615#0"/>
    <trip id="9" depart="224.40" from="334712687#3" to="352235705#1"/>
    <trip id="10" depart="253.00" from="-282035414#5" to="-282035705#0"/>
    <trip id="11" depart="269.00" from="-1195561017" to="313195147#4"/>
    <trip id="12" depart="269.40" from="352233173#1" to="-397578134"/>
    <trip id="13" depart="274.20" from="1447357247" to="-182703524#1"/>
    <trip id="14" depart="285.40" from="362797286#3" to="352233445#1"/>
    <trip id="15" depart="295.40" from="694244632#0" to="316751880#1"/>
    <trip id="16" depart="303.40" from="352233069#4" to="-116607733#9"/>
    <trip id="17" depart="318.40" from="363194031" to="315417462#15"/>
    <trip id="18" depart="330.60" from="334712712#12" to="316751880#1"/>
    <trip id="19" depart="347.20" from="-282035725#2" to="314222544#0-AddedOnRampEdge"/>
    <trip id="20" depart="360.20" from="-1242153875" to="352234130#0"/>
    <trip id="21" depart="381.20" from="334712687#0" to="-282035517#0"/>
    <trip id="22" depart="387.00" from="315417462#0" to="1109179959#2"/>
    <trip id="23" depart="389.00" from="-334712544#1" to="314536791#4"/>
    <trip id="24" depart="395.60" from="-282035517#0" to="-116607733#6"/>
    <trip id="25" depart="423.40" from="-282035331#3" to="-334712725#0"/>
    <trip id="26" depart="443.60" from="334712712#12" to="426066277"/>
    <trip id="27" depart="466.20" from="-309194757#0" to="265387552#1"/>
    <trip id="28" depart="467.20" from="-362797286#0" to="728941829#1"/>
    <trip id="29" depart="468.20" from="116610397#5" to="399365836"/>
    <trip id="30" depart="523.60" from="-1272950380#0" to="61574816#10"/>
    <trip id="31" depart="536.40" from="-281802014#0" to="420202143"/>
    <trip id="32" depart="562.00" from="-282035722#0" to="-1205204785#0"/>
    <trip id="33" depart="579.80" from="-416865796#1" to="282035649#1"/>
    <trip id="34" depart="586.60" from="-334712616#1" to="147252877#0"/>
    <trip id="35" depart="599.20" from="116607733#3" to="-355699292"/>
    <trip id="36" depart="634.40" from="116612039#0" to="-282035712#2"/>
    <trip id="37" depart="644.00" from="282035414#0" to="-1122038426#0"/>
    <trip id="38" depart="664.00" from="355689671#1" to="116611237#2"/>
    <trip id="39" depart="688.80" from="282035446#1" to="282035719#1"/>
    <trip id="40" depart="706.00" from="-116611028#4" to="282035325#0"/>
    <trip id="41" depart="719.60" from="-334712712#7" to="-334712687#0"/>
    <trip id="42" depart="725.00" from="334712570#0" to="282035574#4"/>
    <trip id="43" depart="738.60" from="-334712541#1" to="-334712616#1"/>
    <trip id="44" depart="738.80" from="-316751880#5" to="-131337080"/>
    <trip id="45" depart="743.80" from="-399365835#1" to="415123087#1"/>
    <trip id="46" depart="771.40" from="281802013#0" to="352235987"/>
    <trip id="47" depart="808.00" from="1353306747" to="-334712544#1"/>
    <trip id="48" depart="837.60" from="116610687#1" to="-1122033445"/>
    <trip id="49" depart="865.20" from="-309194757#9" to="-61574816#7"/>
    <trip id="50" depart="871.20" from="116612967#0" to="281802013#0"/>
    <trip id="51" depart="881.00" from="-827086280#3" to="-827086281#2"/>
    <trip id="52" depart="918.00" from="-282035438" to="116439943#2"/>
    <trip id="53" depart="927.20" from="352235054#0" to="314536791#4"/>
    <trip id="54" depart="935.60" from="-281795926#0" to="-116611729"/>
    <trip id="55" depart="967.40" from="116608275#0" to="182703787#5"/>
    <trip id="56" depart="996.60" from="-352232705#2" to="323880237#0"/>
    <trip id="57" depart="1014.20" from="282035679" to="282035331#1"/>
    <trip id="58" depart="1046.00" from="-282035499" to="-282035373"/>
    <trip id="59" depart="1095.20" from="-827086294#2" to="334712712#8"/>
    <trip id="60" depart="1114.60" from="-116611237#1" to="-416865768#0"/>
    <trip id="61" depart="1118.80" from="147252877#3" to="-282035343"/>
    <trip id="62" depart="1126.80" from="282035331#4" to="116609794#0"/>
    <trip id="63" depart="1158.40" from="-282035585#1" to="281802013#2"/>
    <trip id="64" depart="1160.80" from="-1153849694" to="282035743#3"/>
    <trip id="65" depart="1163.80" from="282035743#1" to="-1193907387#1"/>
    <trip id="66" depart="1175.60" from="-416853354#0" to="-281802013#3"/>
    <trip id="67" depart="1185.40" from="416865792#0" to="116610653#4"/>
    <trip id="68" depart="1207.20" from="-116610653#2" to="-282035705#0"/>
    <trip id="69" depart="1211.20" from="334712570#0" to="1097279783#0"/>
    <trip id="70" depart="1265.40" from="827086281#2" to="1353306747"/>
    <trip id="71" depart="1270.60" from="399365833" to="352235363#1"/>
    <trip id="72" depart="1270.80" from="1304814662" to="282035574#2"/>
    <trip id="73" depart="1282.20" from="116610687#1" to="352235609#1"/>
    <trip id="74" depart="1294.20" from="282035609#1" to="116439948#2"/>
    <trip id="75" depart="1330.20" from="-282035712#3" to="-282035678#1"/>
    <trip id="76" depart="1331.00" from="116609845#0" to="182703440#0"/>
    <trip id="77" depart="1343.40" from="-282035748#2" to="-116611237#1"/>
    <trip id="78" depart="1345.00" from="-309194757#7" to="-282036718"/>
    <trip id="79" depart="1364.40" from="-334712687#2" to="116611238#0"/>
    <trip id="80" depart="1365.20" from="-170870587" to="-282035557"/>
    <trip id="81" depart="1379.60" from="-116610764#1" to="-399365833"/>
    <trip id="82" depart="1385.00" from="116610653#0" to="-416865796#0"/>
    <trip id="83" depart="1388.60" from="352235363#0" to="1272950994#0"/>
    <trip id="84" depart="1390.80" from="282035331#3" to="352232917"/>
    <trip id="85" depart="1396.60" from="282035722#1" to="-352236348#0"/>
    <trip id="86" depart="1399.20" from="-1153849694" to="-352234130#3"/>
    <trip id="87" depart="1437.00" from="1271439941" to="-282035507"/>
    <trip id="88" depart="1438.60" from="-282035452" to="-694325543"/>
    <trip id="89" depart="1440.60" from="-116609794#0" to="-352233069#1"/>
    <trip id="90" depart="1441.20" from="281802013#2" to="-397574336#3"/>
    <trip id="91" depart="1482.60" from="-1304814662" to="182703150#1"/>
    <trip id="92" depart="1485.00" from="-116609662#1" to="-363194032#4"/>
    <trip id="93" depart="1490.80" from="116611028#4" to="-116609662#0"/>
    <trip id="94" depart="1505.00" from="170870633#3" to="-1459218613#1"/>
    <trip id="95" depart="1510.40" from="-826366072" to="-116610521#2"/>
    <trip id="96" depart="1515.40" from="-352235603#0" to="-282035432"/>
    <trip id="97" depart="1533.00" from="-334712712#4" to="309189799#1"/>
    <trip id="98" depart="1543.40" from="-352235603#0" to="282035748#0"/>
    <trip id="99" depart="1557.40" from="316751880#12" to="-282035705#3"/>
    <trip id="100" depart="1605.20" from="-116612039#1" to="-116607537#1"/>
    <trip id="101" depart="1618.60" from="116610521#0" to="827086294#7"/>
    <trip id="102" depart="1621.00" from="-352233604" to="281795926#0"/>
    <trip id="103" depart="1645.40" from="309189807#0" to="281795926#2"/>
    <trip id="104" depart="1656.40" from="-282035355#0" to="-116607733#0"/>
    <trip id="105" depart="1659.00" from="-182703524#0" to="-131337079#1"/>
    <trip id="106" depart="1674.80" from="28131038#0" to="1189307096#1"/>
    <trip id="107" depart="1682.20" from="-282035446#2" to="282035452"/>
    <trip id="108" depart="1703.20" from="282035725#1" to="-281795925#1"/>
    <trip id="109" depart="1719.20" from="1272950994#0" to="282035743#0"/>
    <trip id="110" depart="1734.80" from="-1243368674" to="323880237#1"/>
    <trip id="111" depart="1748.00" from="416929437#3" to="-1205204785#0"/>
    <trip id="112" depart="1758.20" from="-116608275#1" to="-334712686#0"/>
    <trip id="113" depart="1760.60" from="-355698056" to="282035557"/>
    <trip id="114" depart="1761.60" from="-116611238#1" to="282035414#4"/>
    <trip id="115" depart="1762.40" from="147252877#0" to="-1188033586#0"/>
    <trip id="116" depart="1793.60" from="282035748#0" to="334712712#8"/>
    <trip id="117" depart="1801.60" from="1243361871" to="-1298044479#1"/>
    <trip id="118" depart="1810.40" from="827086280#2" to="313195147#7"/>
    <trip id="119" depart="1816.40" from="-352233445#2" to="-61574816#5"/>
    <trip id="120" depart="1842.80" from="-352235040" to="116610397#1"/>
    <trip id="121" depart="1857.20" from="-352233069#3" to="334712712#7"/>
    <trip id="122" depart="1884.80" from="315417462#16" to="-1193907387#0"/>
    <trip id="123" depart="1891.40" from="416865803#0" to="207472303#0"/>
    <trip id="124" depart="1895.80" from="315417462#7" to="282035517#2"/>
    <trip id="125" depart="1900.00" from="-416865796#2" to="282035705#1"/>
    <trip id="126" depart="1920.40" from="416929538" to="-282035748#2"/>
    <trip id="127" depart="1961.00" from="314225198#1" to="116611237#2"/>
    <trip id="128" depart="1989.40" from="1109179959#1" to="-694325543"/>
    <trip id="129" depart="1991.40" from="282035528#2" to="-282035748#0"/>
    <trip id="130" depart="1993.20" from="-116612967#2" to="352234666#1"/>
    <trip id="131" depart="2008.80" from="-282035585#1" to="1124070421"/>
    <trip id="132" depart="2049.20" from="1298044479#2" to="-352236315#2"/>
    <trip id="133" depart="2053.80" from="-116609793" to="334712712#9"/>
    <trip id="134" depart="2066.40" from="-281802015#1" to="-282035432"/>
    <trip id="135" depart="2070.60" from="313195147#2" to="-352233173#0"/>
    <trip id="136" depart="2076.60" from="352233069#3" to="282035457"/>
    <trip id="137" depart="2079.80" from="-282036715" to="-116439948#1"/>
    <trip id="138" depart="2088.60" from="397574336#4" to="-116611730#0"/>
    <trip id="139" depart="2090.20" from="282035446#2" to="116607733#9"/>
    <trip id="140" depart="2146.40" from="282035712#2" to="282035414#4"/>
    <trip id="141" depart="2146.80" from="182703150#2" to="116608275#1"/>
    <trip id="142" depart="2156.80" from="313195121#1" to="-116612967#3"/>
    <trip id="143" depart="2210.00" from="-282035473" to="282035414#6"/>
    <trip id="144" depart="2246.40" from="-334712570#0" to="1272950380#1"/>
    <trip id="145" depart="2258.80" from="-827086282#2" to="116610764#3"/>
    <trip id="146" depart="2270.20" from="-416853354#0" to="282035725#1"/>
    <trip id="147" depart="2278.00" from="-334712712#8" to="282035476"/>
    <trip id="148" depart="2280.80" from="-282035743#3" to="-282035705#2"/>
    <trip id="149" depart="2289.80" from="-1272950995" to="-282035331#4"/>
    <trip id="150" depart="2300.00" from="282035719#0" to="-282035326#3"/>
    <trip id="151" depart="2309.80" from="-282035446#0" to="116607733#0"/>
    <trip id="152" depart="2341.60" from="116609905#1" to="-314524928#0"/>
    <trip id="153" depart="2351.40" from="-1192009200" to="-282035343"/>
    <trip id="154" depart="2367.20" from="-282035517#0" to="-281802015#0"/>
    <trip id="155" depart="2373.20" from="-116607285#1" to="116611028#3"/>
    <trip id="156" depart="2386.20" from="-282035748#2" to="61574816#8"/>
    <trip id="157" depart="2402.00" from="116610712#4" to="282035446#0"/>
    <trip id="158" depart="2412.00" from="-1298045708" to="352233618"/>
    <trip id="159" depart="2422.00" from="1124348893#1" to="352234130#1"/>
    <trip id="160" depart="2437.20" from="116611729" to="1153849694"/>
    <trip id="161" depart="2442.80" from="-416929437#2" to="-282035326#1"/>
    <trip id="162" depart="2446.20" from="-116610653#3" to="415123087#2"/>
    <trip id="163" depart="2448.60" from="-827086294#5" to="334712541#2"/>
    <trip id="164" depart="2459.60" from="-362797286#1" to="-116611028#3"/>
    <trip id="165" depart="2467.40" from="147252877#3" to="-116610653#2"/>
    <trip id="166" depart="2478.20" from="-182703263#0" to="1189307096#0"/>
    <trip id="167" depart="2491.80" from="-334712544#0" to="827086282#2"/>
    <trip id="168" depart="2494.60" from="-1272950994#0" to="309194757#1"/>
    <trip id="169" depart="2497.00" from="1272950381" to="314524928#2"/>
    <trip id="170" depart="2519.20" from="-282035515#0" to="116610712#2"/>
    <trip id="171" depart="2530.20" from="334712687#2" to="827086281#6"/>
    <trip id="172" depart="2546.20" from="-334712544#1" to="170870633#3"/>
    <trip id="173" depart="2558.20" from="1298044479#1" to="282035712#6"/>
    <trip id="174" depart="2572.20" from="397574336#4" to="-282035414#4"/>
    <trip id="175" depart="2586.00" from="-282035414#6" to="281802014#2"/>
    <trip id="176" depart="2593.80" from="-182703787#5" to="-281802013#0"/>
    <trip id="177" depart="2622.00" from="-116611238#0" to="-1124348893#0"/>
    <trip id="178" depart="2633.80" from="-316751880#0" to="-282035557"/>
    <trip id="179" depart="2635.80" from="282035405#0" to="282035476"/>
    <trip id="180" depart="2640.60" from="352236363" to="314222571"/>
    <trip id="181" depart="2646.40" from="1459224585#1" to="281802015#0"/>
    <trip id="182" depart="2651.00" from="363194032#3" to="-426066278"/>
    <trip id="183" depart="2681.40" from="116610653#2" to="281795925#0"/>
    <trip id="184" depart="2684.20" from="352235603#2" to="334712544#1"/>
    <trip id="185" depart="2689.00" from="-116611028#5" to="-265387553#1"/>
    <trip id="186" depart="2689.20" from="-334712570#2" to="282035743#1"/>
    <trip id="187" depart="2692.40" from="116611238#0" to="-316751880#11"/>
    <trip id="188" depart="2711.40" from="-1298044479#2" to="282035414#2"/>
    <trip id="189" depart="2724.60" from="282035349#1" to="416853354#0"/>
    <trip id="190" depart="2732.20" from="116439948#5" to="116609794#0"/>
    <trip id="191" depart="2744.00" from="-116611730#1" to="-116610179#0"/>
    <trip id="192" depart="2760.60" from="-416865792#0" to="-334712712#3"/>
    <trip id="193" depart="2764.80" from="-282035649#1" to="-116612967#1"/>
    <trip id="194" depart="2778.20" from="416929437#0" to="334712616#3"/>
    <trip id="195" depart="2779.60" from="116611730#0" to="416865796#0"/>
    <trip id="196" depart="2789.80" from="827086294#7" to="282035331#1"/>
    <trip id="197" depart="2810.80" from="-282035743#1" to="-116610179#1"/>
    <trip id="198" depart="2813.80" from="282035712#0" to="1159611379#0"/>
    <trip id="199" depart="2824.80" from="-281802015#1" to="1272950994#1"/>
    <trip id="200" depart="2860.80" from="170870621#1" to="116609662#1"/>
    <trip id="201" depart="2878.00" from="-334712725#1" to="282035326#6"/>
    <trip id="202" depart="2878.80" from="397574336#1" to="316751880#3"/>
    <trip id="203" depart="2882.80" from="116610712#0" to="1051856116"/>
    <trip id="204" depart="2925.00" from="-334712616#2" to="-334712712#4"/>
    <trip id="205" depart="2955.20" from="426066278" to="-397574336#3"/>
    <trip id="206" depart="2964.20" from="116607733#9" to="827086281#3"/>
    <trip id="207" depart="3025.40" from="182703787#9" to="116611240#1"/>
    <trip id="208" depart="3026.20" from="-397574336#1" to="-282035326#6"/>
    <trip id="209" depart="3026.40" from="-352234508#0" to="282036718"/>
    <trip id="210" depart="3026.80" from="1459224585#1" to="309189799#0"/>
    <trip id="211" depart="3035.20" from="-282035380#1" to="116612967#0"/>
    <trip id="212" depart="3056.80" from="362797286#1" to="-827086280#1"/>
    <trip id="213" depart="3059.20" from="282035343" to="-1298044479#1"/>
    <trip id="214" depart="3073.80" from="-282035574#1" to="-182703787#7"/>
    <trip id="215" depart="3092.20" from="116610712#1" to="116612967#3"/>
    <trip id="216" depart="3113.60" from="352235705#0" to="1111050790"/>
    <trip id="217" depart="3123.40" from="-1272950381" to="334712615#0"/>
    <trip id="218" depart="3138.40" from="116439948#1" to="282035569#1"/>
    <trip id="219" depart="3143.80" from="116607537#1" to="-282036944#0"/>
    <trip id="220" depart="3158.20" from="316751880#6" to="728941829#0"/>
    <trip id="221" depart="3179.40" from="-282035585#1" to="116612967#2"/>
    <trip id="222" depart="3181.60" from="-352235609#1" to="363194032#4"/>
    <trip id="223" depart="3228.60" from="334712712#12" to="-309194757#11"/>
    <trip id="224" depart="3232.60" from="309194757#7" to="-416865792#0"/>
    <trip id="225" depart="3248.60" from="363194032#3" to="116610397#3"/>
    <trip id="226" depart="3261.00" from="315417462#13" to="-309194757#9"/>
    <trip id="227" depart="3282.40" from="-316751880#8" to="1272952270"/>
    <trip id="228" depart="3302.00" from="827086294#6" to="116608275#0"/>
    <trip id="229" depart="3306.80" from="-182703150#2" to="116611237#2"/>
    <trip id="230" depart="3313.20" from="-352235603#4" to="-352234666#2"/>
    <trip id="231" depart="3325.80" from="-316751880#5" to="282035452"/>
    <trip id="232" depart="3338.60" from="-116607733#5" to="334712570#3"/>
    <trip id="233" depart="3354.20" from="-355689671#1" to="-116439943#2"/>
    <trip id="234" depart="3397.00" from="334712712#2" to="313195147#2"/>
    <trip id="235" depart="3405.80" from="282035621" to="334712615#1"/>
    <trip id="236" depart="3406.60" from="352235201" to="313195124#5"/>
    <trip id="237" depart="3413.40" from="-282035523#1" to="315417462#13"/>
    <trip id="238" depart="3429.40" from="-282035452" to="-282035331#1"/>
    <trip id="239" depart="3459.20" from="-282035649#1" to="282036715"/>
    <trip id="240" depart="3461.80" from="282035725#1" to="282035355#0"/>
    <trip id="241" depart="3462.20" from="-1459218613#1" to="-117364363#1"/>
    <trip id="242" depart="3503.60" from="147252877#0" to="-116610179#0"/>
    <trip id="243" depart="3529.60" from="309194757#4" to="-116609845#2"/>
    <trip id="244" depart="3539.60" from="352235603#3" to="-334712712#8"/>
    <trip id="245" depart="3545.00" from="-397574336#4" to="-282035380#0"/>
    <trip id="246" depart="3555.20" from="309194757#2" to="352234281"/>
    <trip id="247" depart="3576.00" from="-282035748#0" to="-265387552#2"/>
    <trip id="248" depart="3578.00" from="352235819" to="416865727"/>
    <trip id="249" depart="3595.60" from="421033597" to="-334712541#0"/>
</routes>
